@<TRIPOS>MOLECULE
*****
 545 0 0 0 0
SMALL
GASTEIGER

@<TRIPOS>ATOM
      1     C	-2.3561996668  0.6902968463  3.7904720396	  C3      1    UNL1	 -0.025667
      2     C	-3.2821654679  2.2941166598  3.2942484623	  C3      1    UNL1	 -0.044577
      3     C	-4.2081312689  0.6902968463  3.2942484623	  C3      1    UNL1	 -0.047469
      4     C	-3.2821654679 -0.9135229672  3.2942484623	  C3      1    UNL1	 -0.033119
      5     C	-1.3649845103  3.7409434154  1.9385404375	  C3      1    UNL1	 -0.023513
      6     C	-3.3474148234  3.7409434154  1.9385404375	  C3      1    UNL1	 -0.048425
      7     C	-4.9512346369  2.5757001137  1.9385404375	  C3      1    UNL1	 -0.054396
      8     C	-5.5638392938  0.6902968463  1.9385404375	  C3      1    UNL1	 -0.052234
      9     C	-4.9512346369 -1.1951064211  1.9385404375	  C3      1    UNL1	 -0.044610
     10     C	-3.3474148234 -2.3603497228  1.9385404375	  C3      1    UNL1	 -0.026116
     11     C	-2.3561996668  4.3941600504  0.0866088354	  C3      1    UNL1	 -0.038917
     12     C	-4.2081312689  3.8979364732  0.0866088354	  C3      1    UNL1	 -0.050227
     13     C	-5.5638392938  2.5422284484  0.0866088354	  C3      1    UNL1	 -0.053176
     14     C	-6.0600628710  0.6902968463  0.0866088354	  C3      1    UNL1	 -0.052218
     15     C	-5.5638392938 -1.1616347558  0.0866088354	  C3      1    UNL1	 -0.046620
     16     C	-4.2081312689 -2.5173427806  0.0866088354	  C3      1    UNL1	 -0.031346
     17     C	-1.3649845103  3.7409434154 -1.7653227667	  C3      1    UNL1	 -0.022069
     18     C	-3.3474148234  3.7409434154 -1.7653227667	  C3      1    UNL1	 -0.042230
     19     C	-4.9512346369  2.5757001137 -1.7653227667	  C3      1    UNL1	 -0.049206
     20     C	-5.5638392938  0.6902968463 -1.7653227667	  C3      1    UNL1	 -0.049392
     21     C	-4.9512346369 -1.1951064211 -1.7653227667	  C3      1    UNL1	 -0.038513
     22     C	-1.4302338658  2.2941166598 -3.1210307915	  C3      1    UNL1	 -0.011116
     23     C	-3.2821654679  2.2941166598 -3.1210307915	  C3      1    UNL1	 -0.034907
     24     C	-4.2081312689  0.6902968463 -3.1210307915	  C3      1    UNL1	 -0.035364
     25     C	-0.2234813134 -4.3915753228  0.0099732875	  C3      1    UNL1	  0.002462
     26     C	 1.7589489997 -4.3915753228  0.0099732875	  C3      1    UNL1	 -0.007558
     27     C	 3.3627688132 -3.2263320211  0.0099732875	  C3      1    UNL1	 -0.005965
     28     C	 4.4715970473 -1.3409287537 -1.8419583146	  C3      1    UNL1	 -0.014560
     29     C	 3.9753734701  0.5110028484 -1.8419583146	  C3      1    UNL1	 -0.000843
     30     C	 0.7677338432 -5.0447919579 -1.8419583146	  C3      1    UNL1	 -0.001715
     31     C	 2.6196654452 -4.5485683806 -1.8419583146	  C3      1    UNL1	 -0.014760
     32     C	 3.9753734701 -3.1928603558 -1.8419583146	  C3      1    UNL1	 -0.018913
     33     C	 3.9753734701 -1.3409287537 -3.6938899167	  C3      1    UNL1	 -0.017591
     34     C	 3.3627688132  0.5444745137 -3.6938899167	  C3      1    UNL1	 -0.012389
     35     C	 1.7589489997  1.7097178154 -3.6938899167	  C3      1    UNL1	 -0.000446
     36     C	-0.2234813134  1.7097178154 -3.6938899167	  C3      1    UNL1	  0.008652
     37     C	 1.7589489997 -4.3915753228 -3.6938899167	  C3      1    UNL1	  0.004742
     38     C	 3.3627688132 -3.2263320211 -3.6938899167	  C3      1    UNL1	 -0.012537
     39     C	 2.6196654452 -1.3409287537 -5.0495979415	  C3      1    UNL1	 -0.002134
     40     C	 1.6936996442  0.2628910598 -5.0495979415	  C3      1    UNL1	  0.001570
     41     C	 1.6936996442 -2.9447485672 -5.0495979415	  C3      1    UNL1	  0.017909
     42     C	 2.6717738332 -0.8733140537  5.9225315647	  C3      1    UNL1	  0.017266
     43     C	 4.5378391199 -0.8733140537  5.3162101985	  C3      1    UNL1	  0.019509
     44     C	 1.1620953035 -1.9701597091  5.3162101985	  C3      1    UNL1	  0.015864
     45     C	 3.2484197194 -2.6480476045  5.3162101985	  C3      1    UNL1	  0.020336
     46     C	 5.6911308924 -0.8733140537  3.7288402539	  C3      1    UNL1	  0.018664
     47     C	 1.1620953035 -3.4881539701  3.7288402539	  C3      1    UNL1	  0.018857
     48     C	 3.1960796842 -3.8468002948  3.7288402539	  C3      1    UNL1	  0.020297
     49     C	 4.9847355302 -2.8141193606  3.7288402539	  C3      1    UNL1	  0.020494
     50     C	 5.6911308924 -0.8733140537  1.7667430969	  C3      1    UNL1	  0.014889
     51     C	 1.1620953035 -3.4881539701  1.7667430969	  C3      1    UNL1	  0.020292
     52     C	 3.1960796842 -3.8468002948  1.7667430969	  C3      1    UNL1	  0.014247
     53     C	 4.9847355302 -2.8141193606  1.7667430969	  C3      1    UNL1	  0.014968
     54     C	 3.7514685894  3.7766702971  3.7681234985	  C3      1    UNL1	  0.017691
     55     C	 6.1941797624  2.0019367463  2.1807535539	  C3      1    UNL1	  0.018791
     56     C	 5.4877844002  3.9427420532  2.1807535539	  C3      1    UNL1	  0.020437
     57     C	 3.6991285542  4.9754229873  2.1807535539	  C3      1    UNL1	  0.017571
     58     C	 6.1941797624  2.0019367463  0.2186563969	  C3      1    UNL1	  0.018301
     59     C	 5.4877844002  3.9427420532  0.2186563969	  C3      1    UNL1	  0.021382
     60     C	 3.6991285542  4.9754229873  0.2186563969	  C3      1    UNL1	  0.019120
     61     C	 1.6651441735  4.6167766627  0.2186563969	  C3      1    UNL1	  0.014537
     62     C	 5.4877844002  0.0611314394  0.2186563969	  C3      1    UNL1	  0.012260
     63     C	 5.0408879899  2.0019367463 -1.3687135477	  C3      1    UNL1	  0.015287
     64     C	 3.7514685894  3.7766702971 -1.3687135477	  C3      1    UNL1	  0.018980
     65     C	 3.1748227032  2.0019367463 -1.9750349139	  C3      1    UNL1	  0.014292
     66     C	 0.7853405532  1.7700616463  6.6856728947	  C3      1    UNL1	  0.013475
     67     C	 2.6514058399  1.7700616463  6.0793515285	  C3      1    UNL1	  0.015390
     68     C	 1.3619864394  3.5447951971  6.0793515285	  C3      1    UNL1	  0.014325
     69     C	-0.7243379765  2.8669073017  6.0793515285	  C3      1    UNL1	  0.009764
     70     C	-0.7243379765  0.6732159909  6.0793515285	  C3      1    UNL1	  0.007946
     71     C	 1.3619864394 -0.0046719045  6.0793515285	  C3      1    UNL1	  0.013868
     72     C	 3.0983022502  3.7108669532  4.4919815839	  C3      1    UNL1	  0.015816
     73     C	 1.3096464042  4.7435478873  4.4919815839	  C3      1    UNL1	  0.011862
     74     C	-0.7243379765  4.3849015627  4.4919815839	  C3      1    UNL1	  0.005122
     75     C	-2.0519269949  2.8027425804  4.4919815839	  C3      1    UNL1	 -0.007362
     76     C	-2.0519269949  0.7373807121  4.4919815839	  C3      1    UNL1	 -0.010189
     77     C	 1.3096464042  4.7435478873  2.5298844269	  C3      1    UNL1	  0.010419
     78     C	-0.7243379765  4.3849015627  2.5298844269	  C3      1    UNL1	 -0.004890
     79     C	-3.4101589549 -2.8103076879 -2.1255439461	  C3      1    UNL1	  0.011397
     80     C	-2.0825699365 -4.3924666701 -2.1255439461	  C3      1    UNL1	  0.024410
     81     C	-2.0825699365  0.8372131627 -4.0876411031	  C3      1    UNL1	  0.009701
     82     C	-3.4101589549 -0.7449458196 -4.0876411031	  C3      1    UNL1	  0.016165
     83     C	-3.4101589549 -2.8103076879 -4.0876411031	  C3      1    UNL1	  0.033169
     84     C	-2.0825699365 -4.3924666701 -4.0876411031	  C3      1    UNL1	  0.038331
     85     C	-0.0485855558 -4.7511129948 -4.0876411031	  C3      1    UNL1	  0.029581
     86     C	 1.2931738799 -1.7776267537 -5.6750110477	  C3      1    UNL1	  0.023025
     87     C	 0.0037544794 -0.0028932029 -5.6750110477	  C3      1    UNL1	  0.025505
     88     C	-2.0825699365 -0.6807810983 -5.6750110477	  C3      1    UNL1	  0.035071
     89     C	-2.0825699365 -2.8744724091 -5.6750110477	  C3      1    UNL1	  0.043704
     90     C	 0.0037544794 -3.5523603045 -5.6750110477	  C3      1    UNL1	  0.037853
     91     C	-0.5728914068 -1.7776267537 -6.2813324139	  C3      1    UNL1	  0.038992
     92     C	 3.7404373139  0.7358989463  5.3897912385	  C3      1    UNL1	  0.018366
     93     C	 0.7641186678 -0.9824794253  5.3897912385	  C3      1    UNL1	  0.014054
     94     C	 5.1929816263  0.7358989463  3.9372469262	  C3      1    UNL1	  0.019413
     95     C	 3.1839052303  3.8620828401  3.9372469262	  C3      1    UNL1	  0.016836
     96     C	-0.4943721601 -1.8614284995  3.9372469262	  C3      1    UNL1	  0.013996
     97     C	 4.6474086348 -1.1221520287 -0.0311779354	  C3      1    UNL1	  0.006363
     98     C	-1.1399213222 -1.6811963253  3.4579534685	  C3      1    UNL1	  0.009535
     99     C	-2.3984121501 -2.5601453995  2.0054091562	  C3      1    UNL1	 -0.008809
    100     C	-0.6369165869 -3.3645934686  2.0054091562	  C3      1    UNL1	  0.018134
    101     C	 0.3305256518  3.9766726226  0.0211967254	  C3      1    UNL1	  0.008568
    102     C	-1.5550379566 -3.6733596572  0.0211967254	  C3      1    UNL1	  0.009767
    103     C	 2.7433686448  1.8952330213 -1.9630157054	  C3      1    UNL1	  0.016389
    104     C	 1.2798652403  3.1633659401 -1.9630157054	  C3      1    UNL1	  0.018663
    105     C	-0.6369165869  3.4389575612 -1.9630157054	  C3      1    UNL1	 -0.006491
    106     C	-1.1399213222  1.7555604179 -3.4155600177	  C3      1    UNL1	  0.001277
    107     C	-3.2745116761  2.2808599035  3.9003979073	  C3      1    UNL1	 -0.031276
    108     C	-4.1928236854  0.6902968463  3.9003979073	  C3      1    UNL1	 -0.035260
    109     C	-3.2745116761 -0.9002662109  3.9003979073	  C3      1    UNL1	 -0.024261
    110     C	-3.3788858862  3.8378013873  2.7258327614	  C3      1    UNL1	 -0.036031
    111     C	-5.0336269489  2.6355616323  2.7258327614	  C3      1    UNL1	 -0.042672
    112     C	-5.6656817923  0.6902968463  2.7258327614	  C3      1    UNL1	 -0.041513
    113     C	-5.0336269489 -1.2549679398  2.7258327614	  C3      1    UNL1	 -0.034883
    114     C	-3.3788858862 -2.4572076947  2.7258327614	  C3      1    UNL1	 -0.019873
    115     C	-1.8587620592  4.7870641237  1.0285369490	  C3      1    UNL1	 -0.025918
    116     C	-3.8196032241  4.5489749007  1.0285369490	  C3      1    UNL1	 -0.038857
    117     C	-5.4451962699  3.4269090375  1.0285369490	  C3      1    UNL1	 -0.043453
    118     C	-6.3631374204  1.6779183011  1.0285369490	  C3      1    UNL1	 -0.043655
    119     C	-6.3631374204 -0.2973246085  1.0285369490	  C3      1    UNL1	 -0.040789
    120     C	-5.4451962699 -2.0463153450  1.0285369490	  C3      1    UNL1	 -0.033646
    121     C	-3.8196032241 -3.1683812081  1.0285369490	  C3      1    UNL1	 -0.019254
    122     C	-1.8587620592  4.7870641237 -0.8553192782	  C3      1    UNL1	 -0.024881
    123     C	-3.8196032241  4.5489749007 -0.8553192782	  C3      1    UNL1	 -0.036807
    124     C	-5.4451962699  3.4269090375 -0.8553192782	  C3      1    UNL1	 -0.041497
    125     C	-6.3631374204  1.6779183011 -0.8553192782	  C3      1    UNL1	 -0.042269
    126     C	-6.3631374204 -0.2973246085 -0.8553192782	  C3      1    UNL1	 -0.039385
    127     C	-5.4451962699 -2.0463153450 -0.8553192782	  C3      1    UNL1	 -0.030282
    128     C	-3.8196032241 -3.1683812081 -0.8553192782	  C3      1    UNL1	 -0.010653
    129     C	-1.3335134475  3.8378013873 -2.5526150906	  C3      1    UNL1	 -0.015473
    130     C	-3.3788858862  3.8378013873 -2.5526150906	  C3      1    UNL1	 -0.031347
    131     C	-5.0336269489  2.6355616323 -2.5526150906	  C3      1    UNL1	 -0.037242
    132     C	-5.6656817923  0.6902968463 -2.5526150906	  C3      1    UNL1	 -0.036005
    133     C	-5.0336269489 -1.2549679398 -2.5526150906	  C3      1    UNL1	 -0.023230
    134     C	-1.4378876576  2.2808599035 -3.7271802365	  C3      1    UNL1	 -0.005736
    135     C	-3.2745116761  2.2808599035 -3.7271802365	  C3      1    UNL1	 -0.022914
    136     C	-4.1928236854  0.6902968463 -3.7271802365	  C3      1    UNL1	 -0.020874
    137     C	-0.2549523762 -4.4884332947  0.7972656114	  C3      1    UNL1	  0.006375
    138     C	 1.7904200625 -4.4884332947  0.7972656114	  C3      1    UNL1	  0.002024
    139     C	 4.8945905524 -1.3409287537 -0.9000302010	  C3      1    UNL1	 -0.002900
    140     C	-2.3212627599 -4.0775409450 -0.9000302010	  C3      1    UNL1	  0.009618
    141     C	-0.6956697141 -5.1996068081 -0.9000302010	  C3      1    UNL1	  0.005162
    142     C	 1.2651714508 -5.4376960311 -0.9000302010	  C3      1    UNL1	 -0.003942
    143     C	 3.1120556545 -4.7372652423 -0.9000302010	  C3      1    UNL1	 -0.009094
    144     C	 4.4218839834 -3.2587746942 -0.9000302010	  C3      1    UNL1	 -0.008705
    145     C	 4.8945905524 -1.3409287537 -2.7838864282	  C3      1    UNL1	 -0.011347
    146     C	 4.4218839834  0.5769171868 -2.7838864282	  C3      1    UNL1	 -0.004597
    147     C	 3.1120556545  2.0554077349 -2.7838864282	  C3      1    UNL1	  0.005423
    148     C	 1.2651714508 -5.4376960311 -2.7838864282	  C3      1    UNL1	  0.002801
    149     C	 3.1120556545 -4.7372652423 -2.7838864282	  C3      1    UNL1	 -0.007878
    150     C	 4.4218839834 -3.2587746942 -2.7838864282	  C3      1    UNL1	 -0.012470
    151     C	 4.0772159686 -1.3409287537 -4.4811822406	  C3      1    UNL1	 -0.009396
    152     C	 3.4451611252  0.6043360323 -4.4811822406	  C3      1    UNL1	 -0.006690
    153     C	 1.7904200625  1.8065757873 -4.4811822406	  C3      1    UNL1	  0.000499
    154     C	-0.2549523762  1.8065757873 -4.4811822406	  C3      1    UNL1	  0.007017
    155     C	 1.7904200625 -4.4884332947 -4.4811822406	  C3      1    UNL1	  0.009830
    156     C	 3.4451611252 -3.2861935398 -4.4811822406	  C3      1    UNL1	 -0.004481
    157     C	 2.6043578617 -1.3409287537 -5.6557473865	  C3      1    UNL1	  0.003072
    158     C	 1.6860458524  0.2496343035 -5.6557473865	  C3      1    UNL1	  0.005539
    159     C	 2.6717738332 -0.8733140537  6.3760658346	  C3      1    UNL1	  0.014182
    160     C	 4.4859109127 -0.8733140537  5.8899692691	  C3      1    UNL1	  0.015872
    161     C	 1.7647052934 -2.4444028506  5.8899692691	  C3      1    UNL1	  0.013910
    162     C	 3.5788423729 -2.4444028506  5.8899692691	  C3      1    UNL1	  0.016134
    163     C	 5.8139514269 -0.8733140537  4.5619287550	  C3      1    UNL1	  0.015964
    164     C	 0.1296987605 -2.7202397034  4.5619287550	  C3      1    UNL1	  0.012510
    165     C	 1.7007875573 -3.8617025296  4.5619287550	  C3      1    UNL1	  0.014995
    166     C	 3.6427601090 -3.8617025296  4.5619287550	  C3      1    UNL1	  0.016558
    167     C	 5.2138489058 -2.7202397034  4.5619287550	  C3      1    UNL1	  0.016746
    168     C	 6.3000479923 -0.8733140537  2.7477916754	  C3      1    UNL1	  0.014218
    169     C	 0.8576367536 -4.0154916474  2.7477916754	  C3      1    UNL1	  0.015267
    170     C	 2.6717738332 -4.5015882129  2.7477916754	  C3      1    UNL1	  0.013809
    171     C	 4.4859109127 -4.0154916474  2.7477916754	  C3      1    UNL1	  0.014321
    172     C	 5.8139514269 -2.6874511333  2.7477916754	  C3      1    UNL1	  0.014366
    173     C	 3.6427601090 -3.8617025296  0.9336545958	  C3      1    UNL1	  0.005735
    174     C	 5.2138489058 -2.7202397034  0.9336545958	  C3      1    UNL1	  0.008319
    175     C	 6.3170002969  2.0019367463  3.0138420550	  C3      1    UNL1	  0.015772
    176     C	 5.7168977758  3.8488623960  3.0138420550	  C3      1    UNL1	  0.016096
    177     C	 4.1458089790  4.9903252222  3.0138420550	  C3      1    UNL1	  0.014439
    178     C	 6.8030968623  2.0019367463  1.1997049754	  C3      1    UNL1	  0.015210
    179     C	 6.3170002969  3.8160738259  1.1997049754	  C3      1    UNL1	  0.016876
    180     C	 4.9889597827  5.1441143400  1.1997049754	  C3      1    UNL1	  0.016229
    181     C	 3.1748227032  5.6302109055  1.1997049754	  C3      1    UNL1	  0.013138
    182     C	 6.3170002969  0.1877996667  1.1997049754	  C3      1    UNL1	  0.012743
    183     C	 6.3170002969  2.0019367463 -0.6144321042	  C3      1    UNL1	  0.013671
    184     C	 5.7168977758  3.8488623960 -0.6144321042	  C3      1    UNL1	  0.016254
    185     C	 4.1458089790  4.9903252222 -0.6144321042	  C3      1    UNL1	  0.015442
    186     C	 2.2038364273  4.9903252222 -0.6144321042	  C3      1    UNL1	  0.012358
    187     C	 5.7168977758  0.1550110966 -0.6144321042	  C3      1    UNL1	  0.007997
    188     C	 4.9889597827  2.0019367463 -1.9424726183	  C3      1    UNL1	  0.010349
    189     C	 4.0818912429  3.5730255432 -1.9424726183	  C3      1    UNL1	  0.013975
    190     C	 2.2677541634  3.5730255432 -1.9424726183	  C3      1    UNL1	  0.015275
    191     C	 0.7853405532  1.7700616463  7.1392071646	  C3      1    UNL1	  0.010294
    192     C	 2.5994776327  1.7700616463  6.6531105991	  C3      1    UNL1	  0.012590
    193     C	 1.6924090929  3.3411504432  6.6531105991	  C3      1    UNL1	  0.011418
    194     C	-0.1217279866  3.3411504432  6.6531105991	  C3      1    UNL1	  0.008510
    195     C	-1.0287965264  1.7700616463  6.6531105991	  C3      1    UNL1	  0.005371
    196     C	-0.1217279866  0.1989728494  6.6531105991	  C3      1    UNL1	  0.007725
    197     C	 1.6924090929  0.1989728494  6.6531105991	  C3      1    UNL1	  0.011912
    198     C	 3.3274156258  3.6169872960  5.3250700850	  C3      1    UNL1	  0.013147
    199     C	 1.7563268290  4.7584501222  5.3250700850	  C3      1    UNL1	  0.010401
    200     C	-0.1856457227  4.7584501222  5.3250700850	  C3      1    UNL1	  0.006178
    201     C	-1.7567345195  3.6169872960  5.3250700850	  C3      1    UNL1	 -0.000969
    202     C	-2.3568370406  1.7700616463  5.3250700850	  C3      1    UNL1	 -0.006975
    203     C	-1.7567345195 -0.0768640034  5.3250700850	  C3      1    UNL1	 -0.002380
    204     C	 2.5994776327  4.9122392400  3.5109330054	  C3      1    UNL1	  0.012170
    205     C	 0.7853405532  5.3983358055  3.5109330054	  C3      1    UNL1	  0.005947
    206     C	-1.0287965264  4.9122392400  3.5109330054	  C3      1    UNL1	 -0.003513
    207     C	-2.3568370406  3.5841987259  3.5109330054	  C3      1    UNL1	 -0.020653
    208     C	-3.1149664795 -3.6245524034 -1.2924554450	  C3      1    UNL1	  0.006313
    209     C	-4.2011655660 -1.7776267537 -3.1065925246	  C3      1    UNL1	 -0.000014
    210     C	-3.7150690006 -3.5917638333 -3.1065925246	  C3      1    UNL1	  0.018244
    211     C	-2.3870284864 -4.9198043474 -3.1065925246	  C3      1    UNL1	  0.023608
    212     C	-0.5728914068 -5.4059009129 -3.1065925246	  C3      1    UNL1	  0.018730
    213     C	-1.5438776827  1.2107617222 -4.9207296042	  C3      1    UNL1	  0.011460
    214     C	-3.1149664795  0.0692988960 -4.9207296042	  C3      1    UNL1	  0.012534
    215     C	-3.7150690006 -1.7776267537 -4.9207296042	  C3      1    UNL1	  0.022005
    216     C	-3.1149664795 -3.6245524034 -4.9207296042	  C3      1    UNL1	  0.030021
    217     C	-1.5438776827 -4.7660152296 -4.9207296042	  C3      1    UNL1	  0.030537
    218     C	 0.3980948690 -4.7660152296 -4.9207296042	  C3      1    UNL1	  0.023654
    219     C	 1.2412456727 -1.7776267537 -6.2487701183	  C3      1    UNL1	  0.019857
    220     C	 0.3341771329 -0.2065379568 -6.2487701183	  C3      1    UNL1	  0.019960
    221     C	-1.4799599466 -0.2065379568 -6.2487701183	  C3      1    UNL1	  0.024848
    222     C	-2.3870284864 -1.7776267537 -6.2487701183	  C3      1    UNL1	  0.030666
    223     C	-1.4799599466 -3.3487155506 -6.2487701183	  C3      1    UNL1	  0.033412
    224     C	 0.3341771329 -3.3487155506 -6.2487701183	  C3      1    UNL1	  0.028000
    225     C	-0.5728914068 -1.7776267537 -6.7348666838	  C3      1    UNL1	  0.029660
    226     C	 3.7240363316  0.7358989463  6.0392370724	  C3      1    UNL1	  0.014658
    227     C	 0.7723191590 -0.9682757579  6.0392370724	  C3      1    UNL1	  0.010972
    228     C	 5.3020985890  0.7358989463  4.7807744161	  C3      1    UNL1	  0.016018
    229     C	 4.7392036652  2.6529430052  4.7807744161	  C3      1    UNL1	  0.014882
    230     C	-0.5658285743 -1.9438935976  4.7807744161	  C3      1    UNL1	  0.007990
    231     C	 6.1778570717  0.7358989463  2.9622431886	  C3      1    UNL1	  0.015476
    232     C	 0.7723191590  5.0466715843  0.9438258022	  C3      1    UNL1	  0.004751
    233     C	-2.4698685643 -2.6426104976  2.8489366461	  C3      1    UNL1	 -0.008278
    234     C	-0.6524455498 -3.4725997779  2.8489366461	  C3      1    UNL1	  0.012447
    235     C	-2.9046576840 -3.4197892026  1.0304054186	  C3      1    UNL1	 -0.008790
    236     C	-1.1317208310 -4.2735905917  1.0304054186	  C3      1    UNL1	  0.007190
    237     C	 0.8360906174  4.3479546843 -0.9880119678	  C3      1    UNL1	  0.008510
    238     C	 1.3251940648  3.2626222206 -2.8065431953	  C3      1    UNL1	  0.009563
    239     C	-0.6524455498  3.5469638705 -2.8065431953	  C3      1    UNL1	 -0.005686
    240     C	-1.1317208310  1.7413567505 -4.0650058516	  C3      1    UNL1	  0.004297
    241     C	-3.3893006773  2.4796802857  4.3771215413	  C3      1    UNL1	 -0.023448
    242     C	-4.4224016877  0.6902968463  4.3771215413	  C3      1    UNL1	 -0.027621
    243     C	-3.3893006773 -1.0990865931  4.3771215413	  C3      1    UNL1	 -0.018334
    244     C	-2.8860616320  4.3755677617  3.0557357522	  C3      1    UNL1	 -0.024202
    245     C	-4.7943557972  3.5040790174  3.0557357522	  C3      1    UNL1	 -0.033094
    246     C	-5.9285526182  1.7392343149  3.0557357522	  C3      1    UNL1	 -0.034709
    247     C	-5.9285526182 -0.3586406224  3.0557357522	  C3      1    UNL1	 -0.031812
    248     C	-4.7943557972 -2.1234853248  3.0557357522	  C3      1    UNL1	 -0.024244
    249     C	-1.3230986564  5.2166081162  1.1462779632	  C3      1    UNL1	 -0.015815
    250     C	-3.3893006773  5.2166081162  1.1462779632	  C3      1    UNL1	 -0.028703
    251     C	-5.2508843728  4.3201166576  1.1462779632	  C3      1    UNL1	 -0.034586
    252     C	-6.5391402614  2.7046948686  1.1462779632	  C3      1    UNL1	 -0.036213
    253     C	-6.9989134648  0.6902968463  1.1462779632	  C3      1    UNL1	 -0.035068
    254     C	-6.5391402614 -1.3241011760  1.1462779632	  C3      1    UNL1	 -0.031108
    255     C	-5.2508843728 -2.9395229650  1.1462779632	  C3      1    UNL1	 -0.023055
    256     C	-3.3893006773 -3.8360144236  1.1462779632	  C3      1    UNL1	 -0.009495
    257     C	-1.3230986564  5.2166081162 -0.9730602924	  C3      1    UNL1	 -0.015684
    258     C	-3.3893006773  5.2166081162 -0.9730602924	  C3      1    UNL1	 -0.027486
    259     C	-5.2508843728  4.3201166576 -0.9730602924	  C3      1    UNL1	 -0.033006
    260     C	-6.5391402614  2.7046948686 -0.9730602924	  C3      1    UNL1	 -0.034751
    261     C	-6.9989134648  0.6902968463 -0.9730602924	  C3      1    UNL1	 -0.033614
    262     C	-6.5391402614 -1.3241011760 -0.9730602924	  C3      1    UNL1	 -0.028772
    263     C	-5.2508843728 -2.9395229650 -0.9730602924	  C3      1    UNL1	 -0.017969
    264     C	-3.3893006773 -3.8360144236 -0.9730602924	  C3      1    UNL1	  0.000543
    265     C	-2.8860616320  4.3755677617 -2.8825180814	  C3      1    UNL1	 -0.022078
    266     C	-4.7943557972  3.5040790174 -2.8825180814	  C3      1    UNL1	 -0.028705
    267     C	-5.9285526182  1.7392343149 -2.8825180814	  C3      1    UNL1	 -0.029698
    268     C	-5.9285526182 -0.3586406224 -2.8825180814	  C3      1    UNL1	 -0.024247
    269     C	-4.7943557972 -2.1234853248 -2.8825180814	  C3      1    UNL1	 -0.006513
    270     C	-3.3893006773  2.4796802857 -4.2039038705	  C3      1    UNL1	 -0.016580
    271     C	-4.4224016877  0.6902968463 -4.2039038705	  C3      1    UNL1	 -0.013791
    272     C	 0.2378718780 -5.0261996691  1.1271686022	  C3      1    UNL1	  0.005116
    273     C	 2.3143934733 -4.7276409367  1.1271686022	  C3      1    UNL1	  0.004424
    274     C	-2.1269508628 -4.9707485650 -0.7822891868	  C3      1    UNL1	  0.007039
    275     C	-0.2653671673 -5.8672400236 -0.7822891868	  C3      1    UNL1	  0.003305
    276     C	 1.8008348536 -5.8672400236 -0.7822891868	  C3      1    UNL1	 -0.002283
    277     C	 3.6624185491 -4.9707485650 -0.7822891868	  C3      1    UNL1	 -0.005099
    278     C	 4.9506744377 -3.3553267760 -0.7822891868	  C3      1    UNL1	 -0.004236
    279     C	 5.4104476411 -1.3409287537 -2.9016274424	  C3      1    UNL1	 -0.006800
    280     C	 4.9506744377  0.6734692686 -2.9016274424	  C3      1    UNL1	 -0.001539
    281     C	 3.6624185491  2.2888910576 -2.9016274424	  C3      1    UNL1	  0.005768
    282     C	-0.2653671673 -5.8672400236 -2.9016274424	  C3      1    UNL1	  0.012169
    283     C	 1.8008348536 -5.8672400236 -2.9016274424	  C3      1    UNL1	  0.001572
    284     C	 3.6624185491 -4.9707485650 -2.9016274424	  C3      1    UNL1	 -0.005270
    285     C	 4.9506744377 -3.3553267760 -2.9016274424	  C3      1    UNL1	 -0.008033
    286     C	 4.4909012343 -1.3409287537 -4.8110852314	  C3      1    UNL1	 -0.005628
    287     C	 3.8998615643  0.6719675081 -4.8110852314	  C3      1    UNL1	 -0.003650
    288     C	 2.3143934733  2.0457834293 -4.8110852314	  C3      1    UNL1	  0.000873
    289     C	 0.2378718780  2.3443421617 -4.8110852314	  C3      1    UNL1	  0.004053
    290     C	 2.3143934733 -4.7276409367 -4.8110852314	  C3      1    UNL1	  0.006293
    291     C	 3.8998615643 -3.3538250156 -4.8110852314	  C3      1    UNL1	 -0.002665
    292     C	 2.8339358640 -1.3409287537 -6.1324710205	  C3      1    UNL1	  0.003827
    293     C	 1.8008348536  0.4484546857 -6.1324710205	  C3      1    UNL1	  0.005674
    294     C	 2.6717738332 -0.8733140537  6.8296001045	  C3      1    UNL1	  0.012015
    295     C	 4.7126780477 -0.8733140537  6.2827414684	  C3      1    UNL1	  0.013471
    296     C	 1.6513217259 -2.6407889502  6.2827414684	  C3      1    UNL1	  0.011352
    297     C	 3.6922259404 -2.6407889502  6.2827414684	  C3      1    UNL1	  0.013364
    298     C	 6.2067236261 -0.8733140537  4.7886958899	  C3      1    UNL1	  0.013630
    299     C	 0.3568740173 -3.5448508551  4.7886958899	  C3      1    UNL1	  0.010514
    300     C	 2.1686980251 -4.3722831547  4.7886958899	  C3      1    UNL1	  0.012533
    301     C	 4.1402450474 -4.0888174873  4.7886958899	  C3      1    UNL1	  0.013632
    302     C	 5.6455628349 -2.7844521994  4.7886958899	  C3      1    UNL1	  0.013842
    303     C	 6.7535822622 -0.8733140537  2.7477916754	  C3      1    UNL1	  0.012278
    304     C	 1.2243446162 -4.6898712344  2.7477916754	  C3      1    UNL1	  0.011205
    305     C	 3.1637814706 -4.9253615036  2.7477916754	  C3      1    UNL1	  0.010933
    306     C	 4.9905053046 -4.2325765345  2.7477916754	  C3      1    UNL1	  0.011514
    307     C	 6.2860357022 -2.7702250145  2.7477916754	  C3      1    UNL1	  0.011820
    308     C	 4.1402450474 -4.0888174873  0.7068874609	  C3      1    UNL1	  0.003524
    309     C	 5.6455628349 -2.7844521994  0.7068874609	  C3      1    UNL1	  0.006246
    310     C	 6.7097724961  2.0019367463  3.2406091899	  C3      1    UNL1	  0.013659
    311     C	 6.1486117049  3.9130748920  3.2406091899	  C3      1    UNL1	  0.013646
    312     C	 4.6432939174  5.2174401799  3.2406091899	  C3      1    UNL1	  0.012478
    313     C	 7.2566311322  2.0019367463  1.1997049754	  C3      1    UNL1	  0.012779
    314     C	 6.7890845722  3.8988477071  1.1997049754	  C3      1    UNL1	  0.013912
    315     C	 5.4935541746  5.3611992271  1.1997049754	  C3      1    UNL1	  0.013497
    316     C	 3.6668303406  6.0539841962  1.1997049754	  C3      1    UNL1	  0.011253
    317     C	 1.7273934862  5.8184939270  1.1997049754	  C3      1    UNL1	  0.007105
    318     C	 6.7890845722  0.1050257855  1.1997049754	  C3      1    UNL1	  0.011118
    319     C	 6.7097724961  2.0019367463 -0.8411992391	  C3      1    UNL1	  0.011024
    320     C	 6.1486117049  3.9130748920 -0.8411992391	  C3      1    UNL1	  0.013076
    321     C	 4.6432939174  5.2174401799 -0.8411992391	  C3      1    UNL1	  0.012672
    322     C	 2.6717468951  5.5009058473 -0.8411992391	  C3      1    UNL1	  0.010117
    323     C	 6.1486117049  0.0907986006 -0.8411992391	  C3      1    UNL1	  0.006399
    324     C	 5.2157269177  2.0019367463 -2.3352448175	  C3      1    UNL1	  0.007537
    325     C	 4.1952748104  3.7694116428 -2.3352448175	  C3      1    UNL1	  0.010908
    326     C	 0.7853405532  1.7700616463  7.5927414345	  C3      1    UNL1	  0.008197
    327     C	 2.8262447677  1.7700616463  7.0458827984	  C3      1    UNL1	  0.010920
    328     C	 1.8057926604  3.5375365428  7.0458827984	  C3      1    UNL1	  0.009289
    329     C	-0.2351115541  3.5375365428  7.0458827984	  C3      1    UNL1	  0.006022
    330     C	-1.2555636614  1.7700616463  7.0458827984	  C3      1    UNL1	  0.003069
    331     C	-0.2351115541  0.0025867498  7.0458827984	  C3      1    UNL1	  0.005955
    332     C	 1.8057926604  0.0025867498  7.0458827984	  C3      1    UNL1	  0.010453
    333     C	 2.2538117674  4.9855650799  5.5518372199	  C3      1    UNL1	  0.009067
    334     C	 0.2822647451  5.2690307473  5.5518372199	  C3      1    UNL1	  0.005335
    335     C	-1.5295592627  4.4415984477  5.5518372199	  C3      1    UNL1	 -0.000522
    336     C	-2.6064189353  2.7659720898  5.5518372199	  C3      1    UNL1	 -0.007331
    337     C	-2.6064189353  0.7741512028  5.5518372199	  C3      1    UNL1	 -0.008575
    338     C	-1.5295592627 -0.9014751551  5.5518372199	  C3      1    UNL1	 -0.000140
    339     C	 1.2773481906  5.8221090962  3.5109330054	  C3      1    UNL1	  0.005839
    340     C	-0.6620886638  5.5866188270  3.5109330054	  C3      1    UNL1	 -0.001904
    341     C	-2.2699369280  4.4768013022  3.5109330054	  C3      1    UNL1	 -0.015222
    342     C	-2.8877912227 -4.4491635551 -1.0656883101	  C3      1    UNL1	  0.006554
    343     C	-4.5360899013 -2.7544674494 -3.1065925246	  C3      1    UNL1	  0.003843
    344     C	-3.6281688880 -4.4843664096 -3.1065925246	  C3      1    UNL1	  0.015386
    345     C	-2.0203206238 -5.5941839344 -3.1065925246	  C3      1    UNL1	  0.017608
    346     C	-1.0759672149  1.7213423473 -5.1474967391	  C3      1    UNL1	  0.007273
    347     C	-2.8877912227  0.8939100477 -5.1474967391	  C3      1    UNL1	  0.005170
    348     C	-3.9646508953 -0.7817163102 -5.1474967391	  C3      1    UNL1	  0.010464
    349     C	-3.9646508953 -2.7735371972 -5.1474967391	  C3      1    UNL1	  0.019197
    350     C	-2.8877912227 -4.4491635551 -5.1474967391	  C3      1    UNL1	  0.024014
    351     C	-1.0759672149 -5.2765958547 -5.1474967391	  C3      1    UNL1	  0.022994
    352     C	 0.8955798074 -4.9931301873 -5.1474967391	  C3      1    UNL1	  0.016827
    353     C	 1.4680128077 -1.7776267537 -6.6415423175	  C3      1    UNL1	  0.015282
    354     C	 0.4475607004 -0.0101518572 -6.6415423175	  C3      1    UNL1	  0.015268
    355     C	-1.5933435141 -0.0101518572 -6.6415423175	  C3      1    UNL1	  0.018619
    356     C	-2.6137956214 -1.7776267537 -6.6415423175	  C3      1    UNL1	  0.023439
    357     C	-1.5933435141 -3.5451016502 -6.6415423175	  C3      1    UNL1	  0.026239
    358     C	 0.4475607004 -3.5451016502 -6.6415423175	  C3      1    UNL1	  0.021978
    359     C	-0.5728914068 -1.7776267537 -7.1884009537	  C3      1    UNL1	  0.023183
    360     C	 3.7087754580  0.7358989463  6.6669085745	  C3      1    UNL1	  0.012211
    361     C	 0.7799495957 -0.9550594537  6.6669085745	  C3      1    UNL1	  0.008985
    362     C	 5.3640679078  0.7358989463  5.5608775200	  C3      1    UNL1	  0.013451
    363     C	 4.7913355735  2.6864461484  5.5608775200	  C3      1    UNL1	  0.012314
    364     C	-0.6064098479 -1.9907268839  5.5608775200	  C3      1    UNL1	  0.005594
    365     C	 6.4700989622  0.7358989463  3.9055850703	  C3      1    UNL1	  0.013495
    366     C	 2.8051605458  5.3315863605  3.9055850703	  C3      1    UNL1	  0.010155
    367     C	 1.7562248832  5.8381594826  1.9530344954	  C3      1    UNL1	  0.007067
    368     C	-0.1963256917  5.4497730253  1.9530344954	  C3      1    UNL1	 -0.002875
    369     C	 0.7072892205  5.3315863605  0.0004839205	  C3      1    UNL1	  0.002712
    370     C	 6.0032786756 -1.3093743649  0.0004839205	  C3      1    UNL1	  0.005399
    371     C	-2.5104498379 -2.6894437839  3.6290397500	  C3      1    UNL1	 -0.006795
    372     C	-0.6612647034 -3.5339383384  3.6290397500	  C3      1    UNL1	  0.009020
    373     C	-3.0868675224 -3.6482731131  1.9737473003	  C3      1    UNL1	 -0.008782
    374     C	-1.1967507695 -4.5585053679  1.9737473003	  C3      1    UNL1	  0.005427
    375     C	 0.9011205558 -4.5585053679  1.9737473003	  C3      1    UNL1	  0.010151
    376     C	-0.1478151068  5.1394425826  0.0211967254	  C3      1    UNL1	 -0.004500
    377     C	-2.1003656817 -4.6766920328  0.0211967254	  C3      1    UNL1	  0.003869
    378     C	 0.9011205558  4.6328694605 -1.9313538495	  C3      1    UNL1	  0.004691
    379     C	 1.3509370501  3.3189914957 -3.5866462992	  C3      1    UNL1	  0.005057
    380     C	-0.6612647034  3.6083024310 -3.5866462992	  C3      1    UNL1	 -0.004175
    381     C	-4.3810669297  0.6902968463  4.9750708433	  C3      1    UNL1	 -0.020832
    382     C	-3.3686332983 -1.0632896426  4.9750708433	  C3      1    UNL1	 -0.013652
    383     C	-4.2269330870  3.9305021774  3.8280756757	  C3      1    UNL1	 -0.023802
    384     C	-5.5964049980  2.5610302665  3.8280756757	  C3      1    UNL1	 -0.027411
    385     C	-6.0976665072  0.6902968463  3.8280756757	  C3      1    UNL1	 -0.026970
    386     C	-5.5964049980 -1.1804365739  3.8280756757	  C3      1    UNL1	 -0.023264
    387     C	-4.2269330870 -2.5499084849  3.8280756757	  C3      1    UNL1	 -0.015864
    388     C	-2.8671830883  5.5519793478  2.1114760982	  C3      1    UNL1	 -0.020195
    389     C	-4.8004306708  4.9238291306  2.1114760982	  C3      1    UNL1	 -0.026938
    390     C	-6.3110485076  3.5636627209  2.1114760982	  C3      1    UNL1	 -0.029718
    391     C	-7.1378370512  1.7066652479  2.1114760982	  C3      1    UNL1	 -0.029841
    392     C	-7.1378370512 -0.3260715553  2.1114760982	  C3      1    UNL1	 -0.027819
    393     C	-6.3110485076 -2.1830690283  2.1114760982	  C3      1    UNL1	 -0.023383
    394     C	-4.8004306708 -3.5432354380  2.1114760982	  C3      1    UNL1	 -0.015807
    395     C	-1.8679862647  5.9589585273  0.0866088354	  C3      1    UNL1	 -0.016115
    396     C	-3.8042143515  5.7795405728  0.0866088354	  C3      1    UNL1	 -0.023950
    397     C	-5.5448800315  4.9127920526  0.0866088354	  C3      1    UNL1	 -0.028122
    398     C	-6.8548967591  3.4757721571  0.0866088354	  C3      1    UNL1	 -0.029786
    399     C	-7.5573395163  1.6625583860  0.0866088354	  C3      1    UNL1	 -0.029595
    400     C	-7.5573395163 -0.2819646935  0.0866088354	  C3      1    UNL1	 -0.027599
    401     C	-6.8548967591 -2.0951784645  0.0866088354	  C3      1    UNL1	 -0.023301
    402     C	-5.5448800315 -3.5321983600  0.0866088354	  C3      1    UNL1	 -0.015937
    403     C	-3.8042143515 -4.3989468802  0.0866088354	  C3      1    UNL1	 -0.005445
    404     C	-0.8455818300  5.3395004936 -1.9382584274	  C3      1    UNL1	 -0.009100
    405     C	-2.8671830883  5.5519793478 -1.9382584274	  C3      1    UNL1	 -0.019324
    406     C	-4.8004306708  4.9238291306 -1.9382584274	  C3      1    UNL1	 -0.024988
    407     C	-6.3110485076  3.5636627209 -1.9382584274	  C3      1    UNL1	 -0.027418
    408     C	-7.1378370512  1.7066652479 -1.9382584274	  C3      1    UNL1	 -0.027308
    409     C	-7.1378370512 -0.3260715553 -1.9382584274	  C3      1    UNL1	 -0.024389
    410     C	-6.3110485076 -2.1830690283 -1.9382584274	  C3      1    UNL1	 -0.017358
    411     C	-4.8004306708 -3.5432354380 -1.9382584274	  C3      1    UNL1	 -0.004079
    412     C	-2.3561996668  4.4317636866 -3.6548580049	  C3      1    UNL1	 -0.013992
    413     C	-4.2269330870  3.9305021774 -3.6548580049	  C3      1    UNL1	 -0.020273
    414     C	-5.5964049980  2.5610302665 -3.6548580049	  C3      1    UNL1	 -0.022274
    415     C	-6.0976665072  0.6902968463 -3.6548580049	  C3      1    UNL1	 -0.019803
    416     C	-5.5964049980 -1.1804365739 -3.6548580049	  C3      1    UNL1	 -0.010591
    417     C	-3.3686332983  2.4438833352 -4.8018531725	  C3      1    UNL1	 -0.010306
    418     C	-4.3810669297  0.6902968463 -4.8018531725	  C3      1    UNL1	 -0.006881
    419     C	-1.6764971608 -5.5744610380  0.1829089482	  C3      1    UNL1	  0.003532
    420     C	 0.2567504217 -6.2026112552  0.1829089482	  C3      1    UNL1	  0.002297
    421     C	 2.2783516800 -5.9901324010  0.1829089482	  C3      1    UNL1	  0.000239
    422     C	 4.0387533907 -4.9737639994  0.1829089482	  C3      1    UNL1	  0.000109
    423     C	 6.0589669919 -1.3409287537 -1.8419583146	  C3      1    UNL1	 -0.001534
    424     C	-0.6802808415 -6.4301724802 -1.8419583146	  C3      1    UNL1	  0.006886
    425     C	 1.2559472453 -6.6095904347 -1.8419583146	  C3      1    UNL1	  0.001838
    426     C	 3.1262394069 -6.0774464345 -1.8419583146	  C3      1    UNL1	 -0.002114
    427     C	 4.6780023232 -4.9056094756 -1.8419583146	  C3      1    UNL1	 -0.004099
    428     C	 5.7016618137 -3.2523426326 -1.8419583146	  C3      1    UNL1	 -0.003949
    429     C	 5.6561958511 -1.3409287537 -3.8668255774	  C3      1    UNL1	 -0.004337
    430     C	 5.2335661053  0.6473878732 -3.8668255774	  C3      1    UNL1	 -0.001600
    431     C	 4.0387533907  2.2919064920 -3.8668255774	  C3      1    UNL1	  0.002339
    432     C	 0.2567504217 -6.2026112552 -3.8668255774	  C3      1    UNL1	  0.011408
    433     C	 2.2783516800 -5.9901324010 -3.8668255774	  C3      1    UNL1	  0.003364
    434     C	 4.0387533907 -4.9737639994 -3.8668255774	  C3      1    UNL1	 -0.002016
    435     C	 5.2335661053 -3.3292453806 -3.8668255774	  C3      1    UNL1	 -0.004557
    436     C	 4.5092006835 -1.3409287537 -5.5834251549	  C3      1    UNL1	 -0.001918
    437     C	 4.0079391743  0.5298046665 -5.5834251549	  C3      1    UNL1	 -0.001099
    438     C	 2.6384672633  1.8992765774 -5.5834251549	  C3      1    UNL1	  0.001436
    439     C	 0.7677338432  2.4005380866 -5.5834251549	  C3      1    UNL1	  0.003796
    440     C	 2.6384672633 -4.5811340849 -5.5834251549	  C3      1    UNL1	  0.006396
    441     C	 4.0079391743 -3.2116621739 -5.5834251549	  C3      1    UNL1	  0.000366
    442     C	 2.7926011060 -1.3409287537 -6.7304203225	  C3      1    UNL1	  0.005441
    443     C	 1.7801674746  0.4126577352 -6.7304203225	  C3      1    UNL1	  0.006550
    444     C	 4.6395852816 -0.8733140537  6.8339942524	  C3      1    UNL1	  0.011536
    445     C	 1.6878681090 -2.5774887579  6.8339942524	  C3      1    UNL1	  0.009515
    446     C	 3.6556795574 -2.5774887579  6.8339942524	  C3      1    UNL1	  0.011180
    447     C	 6.2176475390 -0.8733140537  5.5755315961	  C3      1    UNL1	  0.011939
    448     C	 0.3497203757 -3.5531065976  5.5755315961	  C3      1    UNL1	  0.008252
    449     C	 2.1671433902 -4.3830958779  5.5755315961	  C3      1    UNL1	  0.010397
    450     C	 4.1447830048 -4.0987542280  5.5755315961	  C3      1    UNL1	  0.011513
    451     C	 5.6547526152 -2.7903581126  5.5755315961	  C3      1    UNL1	  0.011882
    452     C	 7.0934060217 -0.8733140537  3.7570003686	  C3      1    UNL1	  0.011434
    453     C	-0.0850687440 -4.3302853026  3.7570003686	  C3      1    UNL1	  0.008790
    454     C	 1.6878681090 -5.1840866917  3.7570003686	  C3      1    UNL1	  0.009654
    455     C	 3.6556795574 -5.1840866917  3.7570003686	  C3      1    UNL1	  0.010296
    456     C	 5.4286164103 -4.3302853026  3.7570003686	  C3      1    UNL1	  0.010806
    457     C	 6.6555267803 -2.7917883607  3.7570003686	  C3      1    UNL1	  0.011051
    458     C	 1.6878681090 -5.1840866917  1.7385829822	  C3      1    UNL1	  0.006595
    459     C	 3.6556795574 -5.1840866917  1.7385829822	  C3      1    UNL1	  0.006644
    460     C	 5.4286164103 -4.3302853026  1.7385829822	  C3      1    UNL1	  0.007604
    461     C	 6.6555267803 -2.7917883607  1.7385829822	  C3      1    UNL1	  0.008512
    462     C	 6.1578014852  3.9189808052  4.0274448961	  C3      1    UNL1	  0.011776
    463     C	 4.6478318748  5.2273769206  4.0274448961	  C3      1    UNL1	  0.010731
    464     C	 7.5964548917  2.0019367463  2.2089136686	  C3      1    UNL1	  0.011478
    465     C	 7.1585756503  3.9204110533  2.2089136686	  C3      1    UNL1	  0.011869
    466     C	 5.9316652803  5.4589079952  2.2089136686	  C3      1    UNL1	  0.011422
    467     C	 4.1587284274  6.3127093843  2.2089136686	  C3      1    UNL1	  0.009784
    468     C	 7.5964548917  2.0019367463  0.1904962822	  C3      1    UNL1	  0.010350
    469     C	 7.1585756503  3.9204110533  0.1904962822	  C3      1    UNL1	  0.011469
    470     C	 5.9316652803  5.4589079952  0.1904962822	  C3      1    UNL1	  0.011345
    471     C	 4.1587284274  6.3127093843  0.1904962822	  C3      1    UNL1	  0.009789
    472     C	 2.1909169790  6.3127093843  0.1904962822	  C3      1    UNL1	  0.006546
    473     C	 7.1585756503  0.0834624393  0.1904962822	  C3      1    UNL1	  0.008346
    474     C	 6.7206964090  2.0019367463 -1.6280349453	  C3      1    UNL1	  0.008334
    475     C	 6.1578014852  3.9189808052 -1.6280349453	  C3      1    UNL1	  0.010273
    476     C	 4.6478318748  5.2273769206 -1.6280349453	  C3      1    UNL1	  0.010073
    477     C	 2.6701922602  5.5117185705 -1.6280349453	  C3      1    UNL1	  0.008057
    478     C	 6.1578014852  0.0848926874 -1.6280349453	  C3      1    UNL1	  0.003421
    479     C	 5.1426341516  2.0019367463 -2.8864976016	  C3      1    UNL1	  0.005019
    480     C	 4.1587284274  3.7061114505 -2.8864976016	  C3      1    UNL1	  0.008221
    481     C	 0.7853405532  1.7700616463  8.0462757044	  C3      1    UNL1	  0.006705
    482     C	 2.7531520016  1.7700616463  7.5971355824	  C3      1    UNL1	  0.009248
    483     C	 1.7692462774  3.4742363505  7.5971355824	  C3      1    UNL1	  0.007662
    484     C	-0.1985651710  3.4742363505  7.5971355824	  C3      1    UNL1	  0.004745
    485     C	-1.1824708952  1.7700616463  7.5971355824	  C3      1    UNL1	  0.002551
    486     C	-0.1985651710  0.0658869421  7.5971355824	  C3      1    UNL1	  0.005037
    487     C	 1.7692462774  0.0658869421  7.5971355824	  C3      1    UNL1	  0.008773
    488     C	 2.2583497248  4.9955018206  6.3386729261	  C3      1    UNL1	  0.007663
    489     C	 0.2807101102  5.2798434705  6.3386729261	  C3      1    UNL1	  0.004468
    490     C	-1.5367129043  4.4498541902  6.3386729261	  C3      1    UNL1	 -0.000061
    491     C	-2.6169003529  2.7690497117  6.3386729261	  C3      1    UNL1	 -0.004688
    492     C	-2.6169003529  0.7710735809  6.3386729261	  C3      1    UNL1	 -0.005258
    493     C	-1.5367129043 -0.9097308976  6.3386729261	  C3      1    UNL1	  0.000395
    494     C	 1.7692462774  6.0808342843  4.5201416986	  C3      1    UNL1	  0.006093
    495     C	-0.1985651710  6.0808342843  4.5201416986	  C3      1    UNL1	  0.001135
    496     C	-1.9715020240  5.2270328952  4.5201416986	  C3      1    UNL1	 -0.006254
    497     C	-3.1984123940  3.6885359533  4.5201416986	  C3      1    UNL1	 -0.016339
    498     C	-0.1985651710  6.0808342843  2.5017243122	  C3      1    UNL1	 -0.002049
    499     C	-4.5566443540 -3.6961010607 -2.0973838314	  C3      1    UNL1	 -0.000340
    500     C	-3.3297339840 -5.2345980026 -2.0973838314	  C3      1    UNL1	  0.009164
    501     C	-1.5567971310 -6.0883993917 -2.0973838314	  C3      1    UNL1	  0.010136
    502     C	-4.9945235954 -1.7776267537 -4.1158012178	  C3      1    UNL1	  0.000723
    503     C	-4.5566443540 -3.6961010607 -4.1158012178	  C3      1    UNL1	  0.010939
    504     C	-3.3297339840 -5.2345980026 -4.1158012178	  C3      1    UNL1	  0.015956
    505     C	-1.5567971310 -6.0883993917 -4.1158012178	  C3      1    UNL1	  0.016015
    506     C	-1.0775218498  1.7321550705 -5.9343324453	  C3      1    UNL1	  0.007280
    507     C	-2.8949448643  0.9021657902 -5.9343324453	  C3      1    UNL1	  0.006672
    508     C	-3.9751323129 -0.7786386883 -5.9343324453	  C3      1    UNL1	  0.010387
    509     C	-3.9751323129 -2.7766148191 -5.9343324453	  C3      1    UNL1	  0.016356
    510     C	-2.8949448643 -4.4574192976 -5.9343324453	  C3      1    UNL1	  0.019931
    511     C	-1.0775218498 -5.2874085779 -5.9343324453	  C3      1    UNL1	  0.019429
    512     C	 0.9001177648 -5.0030669280 -5.9343324453	  C3      1    UNL1	  0.015228
    513     C	 1.3949200416 -1.7776267537 -7.1927951016	  C3      1    UNL1	  0.013476
    514     C	 0.4110143174 -0.0734520495 -7.1927951016	  C3      1    UNL1	  0.013150
    515     C	-1.5567971310 -0.0734520495 -7.1927951016	  C3      1    UNL1	  0.015203
    516     C	-2.5407028552 -1.7776267537 -7.1927951016	  C3      1    UNL1	  0.018715
    517     C	-1.5567971310 -3.4818014579 -7.1927951016	  C3      1    UNL1	  0.020933
    518     C	 0.4110143174 -3.4818014579 -7.1927951016	  C3      1    UNL1	  0.018076
    519     C	-0.5728914068 -1.7776267537 -7.6419352236	  C3      1    UNL1	  0.018519
    520     C	 3.6951980831  0.7358989463  7.2803195791	  C3      1    UNL1	  0.010329
    521     C	 0.7867382832 -0.9433011021  7.2803195791	  C3      1    UNL1	  0.007465
    522     C	 5.4003024989  0.7358989463  6.2958770856	  C3      1    UNL1	  0.011421
    523     C	 4.8218180513  2.7060360473  6.2958770856	  C3      1    UNL1	  0.010474
    524     C	-0.6301384588 -2.0181111607  6.2958770856	  C3      1    UNL1	  0.004372
    525     C	 6.6658773734  0.7358989463  4.7876236823	  C3      1    UNL1	  0.011774
    526     C	 6.2414156142  2.7328345188  4.7876236823	  C3      1    UNL1	  0.011567
    527     C	 5.0414236309  4.3844817893  4.7876236823	  C3      1    UNL1	  0.010910
    528     C	 3.2733909391  5.4052559398  4.7876236823	  C3      1    UNL1	  0.009055
    529     C	-0.6986013619 -3.5159848340  4.7876236823	  C3      1    UNL1	  0.005878
    530     C	 7.3392756988  0.7358989463  2.9374769889	  C3      1    UNL1	  0.011428
    531     C	 2.2713638227  6.2951334514  2.9374769889	  C3      1    UNL1	  0.006825
    532     C	 0.2283505032  6.1058203879  0.9685920019	  C3      1    UNL1	 -0.001505
    533     C	 6.9622647241 -1.2809316328  0.9685920019	  C3      1    UNL1	  0.008026
    534     C	 1.2430264532  5.6186558465 -0.8815546914	  C3      1    UNL1	  0.004257
    535     C	 6.2414156142 -1.2610366262 -0.8815546914	  C3      1    UNL1	  0.002245
    536     C	-2.5341784488 -2.7168280607  4.3640393156	  C3      1    UNL1	 -0.005320
    537     C	-2.6026413519 -4.2147017340  2.8557859123	  C3      1    UNL1	 -0.002834
    538     C	-0.6610135368 -4.8455748539  2.8557859123	  C3      1    UNL1	  0.006115
    539     C	-3.5123549050 -4.4181886854  1.0056392189	  C3      1    UNL1	 -0.006227
    540     C	-1.6756894868 -5.3327393953  1.0056392189	  C3      1    UNL1	  0.002762
    541     C	 0.3673238327  5.5964165514 -0.9632457681	  C3      1    UNL1	 -0.000844
    542     C	 1.3693509491  4.7065390398 -2.8133924614	  C3      1    UNL1	  0.004306
    543     C	-0.6610135368  4.9199389465 -2.8133924614	  C3      1    UNL1	 -0.006616
    544     C	 1.3659894433  3.3519516391 -4.3216458648	  C3      1    UNL1	  0.003108
    545     C	-0.6664214234  3.6441682062 -4.3216458648	  C3      1    UNL1	 -0.002641
