@<TRIPOS>MOLECULE
*****
 605 0 0 0 0
SMALL
GASTEIGER

@<TRIPOS>ATOM
      1     C	-1.6502042396  1.7183783716  3.4367567431	  C3      1    UNL1	  0.073194
      2     C	-3.6344166704  1.7183783716  3.4367567431	  C3      1    UNL1	  0.149450
      3     C	-4.6265228858  0.0000000000  3.4367567431	  C3      1    UNL1	  0.033910
      4     C	-4.8929074982  2.5973274458  1.9842124308	  C3      1    UNL1	  0.055545
      5     C	-5.9398544021  0.9682462645  1.9842124308	  C3      1    UNL1	  0.031512
      6     C	-5.9398544021 -0.9682462645  1.9842124308	  C3      1    UNL1	  0.013456
      7     C	-5.6127191172  2.6315524432  0.0000000000	  C3      1    UNL1	  0.031383
      8     C	-6.4954201024  0.9497062319  0.0000000000	  C3      1    UNL1	  0.022877
      9     C	-6.4954201024 -0.9497062319  0.0000000000	  C3      1    UNL1	  0.012295
     10     C	-5.6127191172 -2.6315524432  0.0000000000	  C3      1    UNL1	  0.003912
     11     C	-5.9398544021  0.9682462645 -1.9842124308	  C3      1    UNL1	  0.031512
     12     C	-5.9398544021 -0.9682462645 -1.9842124308	  C3      1    UNL1	  0.013456
     13     C	-4.8929074982 -2.5973274458 -1.9842124308	  C3      1    UNL1	  0.002609
     14     C	-4.6265228858  0.0000000000 -3.4367567431	  C3      1    UNL1	  0.033910
     15     C	-3.6344166704 -1.7183783716 -3.4367567431	  C3      1    UNL1	  0.001317
     16     C	-1.6502042396 -1.7183783716 -3.4367567431	  C3      1    UNL1	 -0.010931
     17     C	 4.6265228858  0.0000000000  3.4367567431	  C3      1    UNL1	  0.033910
     18     C	 3.6344166704  1.7183783716  3.4367567431	  C3      1    UNL1	  0.001317
     19     C	 1.6502042396  1.7183783716  3.4367567431	  C3      1    UNL1	 -0.010931
     20     C	 6.0790671981  0.0000000000  1.9842124308	  C3      1    UNL1	  0.021182
     21     C	 5.5334942067  1.8580509750  1.9842124308	  C3      1    UNL1	  0.007480
     22     C	 4.0699908021  3.1261838938  1.9842124308	  C3      1    UNL1	 -0.001564
     23     C	 5.5334942067 -1.8580509750  1.9842124308	  C3      1    UNL1	  0.044545
     24     C	 6.6107353166  0.0000000000  0.0000000000	  C3      1    UNL1	  0.017424
     25     C	 6.1561761610  1.8442189897  0.0000000000	  C3      1    UNL1	  0.007770
     26     C	 6.1561761610 -1.8442189897  0.0000000000	  C3      1    UNL1	  0.027945
     27     C	 6.0790671981  0.0000000000 -1.9842124308	  C3      1    UNL1	  0.021182
     28     C	 5.5334942067  1.8580509750 -1.9842124308	  C3      1    UNL1	  0.007480
     29     C	 4.0699908021 -3.1261838938 -1.9842124308	  C3      1    UNL1	  0.053861
     30     C	 5.5334942067 -1.8580509750 -1.9842124308	  C3      1    UNL1	  0.044545
     31     C	 4.6265228858  0.0000000000 -3.4367567431	  C3      1    UNL1	  0.033910
     32     C	 1.6502042396 -1.7183783716 -3.4367567431	  C3      1    UNL1	  0.073194
     33     C	 3.6344166704 -1.7183783716 -3.4367567431	  C3      1    UNL1	  0.149450
     34     C	 2.8323197462  5.1465926608  1.1998384231	  C3      1    UNL1	 -0.004011
     35     C	 5.2750309192  3.3718591100 -0.3875315215	  C3      1    UNL1	  0.001254
     36     C	 4.5686355570  5.3126644169 -0.3875315215	  C3      1    UNL1	 -0.001706
     37     C	 2.7799797111  6.3453453510 -0.3875315215	  C3      1    UNL1	 -0.002898
     38     C	 0.7459953304  5.9866990264 -0.3875315215	  C3      1    UNL1	 -0.003076
     39     C	 5.2750309192  3.3718591100 -2.3496286785	  C3      1    UNL1	  0.000560
     40     C	 4.5686355570  5.3126644169 -2.3496286785	  C3      1    UNL1	 -0.002430
     41     C	 2.7799797111  6.3453453510 -2.3496286785	  C3      1    UNL1	 -0.003716
     42     C	 0.7459953304  5.9866990264 -2.3496286785	  C3      1    UNL1	 -0.004331
     43     C	 4.1217391468  3.3718591100 -3.9369986231	  C3      1    UNL1	 -0.004984
     44     C	 2.8323197462  5.1465926608 -3.9369986231	  C3      1    UNL1	 -0.006871
     45     C	 0.7459953304  4.4687047654 -3.9369986231	  C3      1    UNL1	 -0.012408
     46     C	 2.2556738600  3.3718591100 -4.5433199893	  C3      1    UNL1	 -0.017021
     47     C	-3.7653523896  4.4687047654  1.1998384231	  C3      1    UNL1	  0.017184
     48     C	-1.7313680089  6.3453453510 -0.3875315215	  C3      1    UNL1	  0.001473
     49     C	-3.7653523896  5.9866990264 -0.3875315215	  C3      1    UNL1	  0.007782
     50     C	-5.0929414081  4.4045400441 -0.3875315215	  C3      1    UNL1	  0.018455
     51     C	-1.7313680089  6.3453453510 -2.3496286785	  C3      1    UNL1	  0.000922
     52     C	-3.7653523896  5.9866990264 -2.3496286785	  C3      1    UNL1	  0.006908
     53     C	-5.0929414081  4.4045400441 -2.3496286785	  C3      1    UNL1	  0.017213
     54     C	-5.0929414081  2.3391781759 -2.3496286785	  C3      1    UNL1	  0.056006
     55     C	-1.6790279738  5.1465926608 -3.9369986231	  C3      1    UNL1	 -0.000905
     56     C	-3.7653523896  4.4687047654 -3.9369986231	  C3      1    UNL1	  0.010478
     57     C	-2.2556738600  3.3718591100 -4.5433199893	  C3      1    UNL1	  0.002271
     58     C	-2.2556738600 -3.3718591100  4.5433199893	  C3      1    UNL1	 -0.017021
     59     C	-3.7653523896 -4.4687047654  3.9369986231	  C3      1    UNL1	 -0.005785
     60     C	-1.6790279738 -5.1465926608  3.9369986231	  C3      1    UNL1	 -0.008633
     61     C	-5.0929414081 -2.3391781759  2.3496286785	  C3      1    UNL1	  0.003954
     62     C	-5.0929414081 -4.4045400441  2.3496286785	  C3      1    UNL1	 -0.001285
     63     C	-3.7653523896 -5.9866990264  2.3496286785	  C3      1    UNL1	 -0.003189
     64     C	-1.7313680089 -6.3453453510  2.3496286785	  C3      1    UNL1	 -0.004086
     65     C	-5.0929414081 -4.4045400441  0.3875315215	  C3      1    UNL1	 -0.000539
     66     C	-3.7653523896 -5.9866990264  0.3875315215	  C3      1    UNL1	 -0.002454
     67     C	-1.7313680089 -6.3453453510  0.3875315215	  C3      1    UNL1	 -0.003093
     68     C	-3.7653523896 -4.4687047654 -1.1998384231	  C3      1    UNL1	 -0.002999
     69     C	 2.2556738600 -3.3718591100  4.5433199893	  C3      1    UNL1	  0.002271
     70     C	 4.1217391468 -3.3718591100  3.9369986231	  C3      1    UNL1	  0.022097
     71     C	 0.7459953304 -4.4687047654  3.9369986231	  C3      1    UNL1	 -0.006982
     72     C	 2.8323197462 -5.1465926608  3.9369986231	  C3      1    UNL1	  0.004153
     73     C	 5.2750309192 -3.3718591100  2.3496286785	  C3      1    UNL1	  0.028136
     74     C	 0.7459953304 -5.9866990264  2.3496286785	  C3      1    UNL1	 -0.001743
     75     C	 2.7799797111 -6.3453453510  2.3496286785	  C3      1    UNL1	  0.003691
     76     C	 4.5686355570 -5.3126644169  2.3496286785	  C3      1    UNL1	  0.011078
     77     C	 5.2750309192 -3.3718591100  0.3875315215	  C3      1    UNL1	  0.027694
     78     C	 0.7459953304 -5.9866990264  0.3875315215	  C3      1    UNL1	 -0.001006
     79     C	 2.7799797111 -6.3453453510  0.3875315215	  C3      1    UNL1	  0.004331
     80     C	 4.5686355570 -5.3126644169  0.3875315215	  C3      1    UNL1	  0.012248
     81     C	 2.8323197462 -5.1465926608 -1.1998384231	  C3      1    UNL1	  0.007991
     82     C	 2.3035690954  3.6790315316  2.5842159981	  C3      1    UNL1	 -0.010083
     83     C	 0.3193566646  3.6790315316  2.5842159981	  C3      1    UNL1	 -0.010166
     84     C	 4.2026466317  3.8187041350  1.1316716858	  C3      1    UNL1	 -0.001791
     85     C	 0.8223613999  5.3624286749  1.1316716858	  C3      1    UNL1	 -0.004194
     86     C	 4.7482196231  1.9606531600 -2.8367531758	  C3      1    UNL1	  0.005155
     87     C	 3.2956753108  1.9606531600 -4.2892974881	  C3      1    UNL1	 -0.009713
     88     C	 0.3193566646  3.6790315316 -4.2892974881	  C3      1    UNL1	 -0.019239
     89     C	 0.3193566646  0.2422747884 -4.2892974881	  C3      1    UNL1	  0.002592
     90     C	 2.3035690954  0.2422747884 -4.2892974881	  C3      1    UNL1	 -0.007813
     91     C	 1.3114628800  1.9606531600 -4.8209656066	  C3      1    UNL1	 -0.043084
     92     C	-0.3193566646  3.6790315316  2.5842159981	  C3      1    UNL1	 -0.004102
     93     C	-2.3035690954  3.6790315316  2.5842159981	  C3      1    UNL1	  0.022612
     94     C	-1.8005643601  5.3624286749  1.1316716858	  C3      1    UNL1	  0.002532
     95     C	-0.3193566646  3.6790315316 -4.2892974881	  C3      1    UNL1	 -0.015823
     96     C	-3.2956753108  1.9606531600 -4.2892974881	  C3      1    UNL1	  0.033231
     97     C	-2.3035690954  0.2422747884 -4.2892974881	  C3      1    UNL1	  0.002183
     98     C	-0.3193566646  0.2422747884 -4.2892974881	  C3      1    UNL1	  0.004540
     99     C	-1.3114628800  1.9606531600 -4.8209656066	  C3      1    UNL1	 -0.024534
    100     C	-1.3114628800 -1.9606531600  4.8209656066	  C3      1    UNL1	 -0.043084
    101     C	-0.3193566646 -0.2422747884  4.2892974881	  C3      1    UNL1	  0.002592
    102     C	-2.3035690954 -0.2422747884  4.2892974881	  C3      1    UNL1	 -0.007813
    103     C	-3.2956753108 -1.9606531600  4.2892974881	  C3      1    UNL1	 -0.009713
    104     C	-0.3193566646 -3.6790315316  4.2892974881	  C3      1    UNL1	 -0.019239
    105     C	-1.8005643601 -5.3624286749 -1.1316716858	  C3      1    UNL1	 -0.004386
    106     C	-2.3035690954 -3.6790315316 -2.5842159981	  C3      1    UNL1	 -0.010083
    107     C	-0.3193566646 -3.6790315316 -2.5842159981	  C3      1    UNL1	 -0.010166
    108     C	 1.3114628800 -1.9606531600  4.8209656066	  C3      1    UNL1	 -0.024534
    109     C	 3.2956753108 -1.9606531600  4.2892974881	  C3      1    UNL1	  0.033231
    110     C	 2.3035690954 -0.2422747884  4.2892974881	  C3      1    UNL1	  0.002183
    111     C	 0.3193566646 -0.2422747884  4.2892974881	  C3      1    UNL1	  0.004540
    112     C	 0.3193566646 -3.6790315316  4.2892974881	  C3      1    UNL1	 -0.015823
    113     C	 4.7482196231 -1.9606531600  2.8367531758	  C3      1    UNL1	  0.089403
    114     C	 0.8223613999 -5.3624286749 -1.1316716858	  C3      1    UNL1	 -0.001179
    115     C	 4.2026466317 -3.8187041350 -1.1316716858	  C3      1    UNL1	  0.027059
    116     C	 0.3193566646 -3.6790315316 -2.5842159981	  C3      1    UNL1	 -0.004102
    117     C	 2.3035690954 -3.6790315316 -2.5842159981	  C3      1    UNL1	  0.022612
    118     C	-1.6584047308  1.7041747042  4.0862025770	  C3      1    UNL1	  0.009643
    119     C	-3.6262161792  1.7041747042  4.0862025770	  C3      1    UNL1	  0.050769
    120     C	-4.6101219034  0.0000000000  4.0862025770	  C3      1    UNL1	  0.020582
    121     C	-4.9643639125  2.6797925439  2.8277399207	  C3      1    UNL1	  0.046083
    122     C	-6.0445513611  0.9989880654  2.8277399207	  C3      1    UNL1	  0.027337
    123     C	-6.0445513611 -0.9989880654  2.8277399207	  C3      1    UNL1	  0.011598
    124     C	-5.3991530321  3.4569712489  1.0092086932	  C3      1    UNL1	  0.026258
    125     C	-6.6260634022  1.9184743070  1.0092086932	  C3      1    UNL1	  0.023159
    126     C	-7.0639426435  0.0000000000  1.0092086932	  C3      1    UNL1	  0.015027
    127     C	-6.6260634022 -1.9184743070  1.0092086932	  C3      1    UNL1	  0.007294
    128     C	-6.6260634022  1.9184743070 -1.0092086932	  C3      1    UNL1	  0.023159
    129     C	-7.0639426435  0.0000000000 -1.0092086932	  C3      1    UNL1	  0.015027
    130     C	-6.6260634022 -1.9184743070 -1.0092086932	  C3      1    UNL1	  0.007294
    131     C	-5.3991530321 -3.4569712489 -1.0092086932	  C3      1    UNL1	  0.001218
    132     C	-6.0445513611  0.9989880654 -2.8277399207	  C3      1    UNL1	  0.027337
    133     C	-6.0445513611 -0.9989880654 -2.8277399207	  C3      1    UNL1	  0.011598
    134     C	-4.9643639125 -2.6797925439 -2.8277399207	  C3      1    UNL1	  0.001470
    135     C	-4.6101219034  0.0000000000 -4.0862025770	  C3      1    UNL1	  0.020582
    136     C	-3.6262161792 -1.7041747042 -4.0862025770	  C3      1    UNL1	 -0.003771
    137     C	-1.6584047308 -1.7041747042 -4.0862025770	  C3      1    UNL1	 -0.032460
    138     C	 4.6101219034  0.0000000000  4.0862025770	  C3      1    UNL1	  0.020582
    139     C	 3.6262161792  1.7041747042  4.0862025770	  C3      1    UNL1	 -0.003771
    140     C	 1.6584047308  1.7041747042  4.0862025770	  C3      1    UNL1	 -0.032460
    141     C	 6.1881841608  0.0000000000  2.8277399207	  C3      1    UNL1	  0.018440
    142     C	 5.6252892370  1.9170440589  2.8277399207	  C3      1    UNL1	  0.006147
    143     C	 4.1153196266  3.2254401743  2.8277399207	  C3      1    UNL1	 -0.002910
    144     C	 5.6252892370 -1.9170440589  2.8277399207	  C3      1    UNL1	  0.038001
    145     C	 7.0639426435  0.0000000000  1.0092086932	  C3      1    UNL1	  0.015027
    146     C	 6.6260634022  1.9184743070  1.0092086932	  C3      1    UNL1	  0.007294
    147     C	 5.3991530321  3.4569712489  1.0092086932	  C3      1    UNL1	  0.001218
    148     C	 6.6260634022 -1.9184743070  1.0092086932	  C3      1    UNL1	  0.023159
    149     C	 7.0639426435  0.0000000000 -1.0092086932	  C3      1    UNL1	  0.015027
    150     C	 6.6260634022  1.9184743070 -1.0092086932	  C3      1    UNL1	  0.007294
    151     C	 5.3991530321 -3.4569712489 -1.0092086932	  C3      1    UNL1	  0.026258
    152     C	 6.6260634022 -1.9184743070 -1.0092086932	  C3      1    UNL1	  0.023159
    153     C	 6.1881841608  0.0000000000 -2.8277399207	  C3      1    UNL1	  0.018440
    154     C	 5.6252892370  1.9170440589 -2.8277399207	  C3      1    UNL1	  0.006147
    155     C	 4.1153196266 -3.2254401743 -2.8277399207	  C3      1    UNL1	  0.043267
    156     C	 5.6252892370 -1.9170440589 -2.8277399207	  C3      1    UNL1	  0.038001
    157     C	 4.6101219034  0.0000000000 -4.0862025770	  C3      1    UNL1	  0.020582
    158     C	 1.6584047308 -1.7041747042 -4.0862025770	  C3      1    UNL1	  0.009643
    159     C	 3.6262161792 -1.7041747042 -4.0862025770	  C3      1    UNL1	  0.050769
    160     C	 4.7977489327  5.2187847597  0.4455569796	  C3      1    UNL1	 -0.001423
    161     C	 3.2266601358  6.3602475859  0.4455569796	  C3      1    UNL1	 -0.002680
    162     C	 1.2846875842  6.3602475859  0.4455569796	  C3      1    UNL1	 -0.003002
    163     C	 5.8839480192  3.3718591100 -1.3685801000	  C3      1    UNL1	  0.002039
    164     C	 5.3978514537  5.1859961896 -1.3685801000	  C3      1    UNL1	 -0.000909
    165     C	 4.0698109396  6.5140367037 -1.3685801000	  C3      1    UNL1	 -0.002267
    166     C	 2.2556738600  7.0001332692 -1.3685801000	  C3      1    UNL1	 -0.002806
    167     C	 0.4415367804  6.5140367037 -1.3685801000	  C3      1    UNL1	 -0.002630
    168     C	 5.3978514537  3.3718591100 -3.1827171796	  C3      1    UNL1	  0.000014
    169     C	 4.7977489327  5.2187847597 -3.1827171796	  C3      1    UNL1	 -0.002574
    170     C	 3.2266601358  6.3602475859 -3.1827171796	  C3      1    UNL1	 -0.003824
    171     C	 1.2846875842  6.3602475859 -3.1827171796	  C3      1    UNL1	 -0.004619
    172     C	 4.0698109396  3.3718591100 -4.5107576937	  C3      1    UNL1	 -0.006014
    173     C	 3.1627423998  4.9429479069 -4.5107576937	  C3      1    UNL1	 -0.006963
    174     C	 1.3486053202  4.9429479069 -4.5107576937	  C3      1    UNL1	 -0.010185
    175     C	-1.2846875842  6.3602475859  0.4455569796	  C3      1    UNL1	  0.000355
    176     C	-3.2266601358  6.3602475859  0.4455569796	  C3      1    UNL1	  0.005441
    177     C	-4.7977489327  5.2187847597  0.4455569796	  C3      1    UNL1	  0.012960
    178     C	-0.4415367804  6.5140367037 -1.3685801000	  C3      1    UNL1	 -0.001458
    179     C	-2.2556738600  7.0001332692 -1.3685801000	  C3      1    UNL1	  0.002132
    180     C	-4.0698109396  6.5140367037 -1.3685801000	  C3      1    UNL1	  0.006494
    181     C	-5.3978514537  5.1859961896 -1.3685801000	  C3      1    UNL1	  0.012786
    182     C	-5.8839480192  3.3718591100 -1.3685801000	  C3      1    UNL1	  0.023592
    183     C	-1.2846875842  6.3602475859 -3.1827171796	  C3      1    UNL1	 -0.000872
    184     C	-3.2266601358  6.3602475859 -3.1827171796	  C3      1    UNL1	  0.003924
    185     C	-4.7977489327  5.2187847597 -3.1827171796	  C3      1    UNL1	  0.010255
    186     C	-5.3978514537  3.3718591100 -3.1827171796	  C3      1    UNL1	  0.023229
    187     C	-1.3486053202  4.9429479069 -4.5107576937	  C3      1    UNL1	 -0.003890
    188     C	-3.1627423998  4.9429479069 -4.5107576937	  C3      1    UNL1	  0.004167
    189     C	-4.0698109396  3.3718591100 -4.5107576937	  C3      1    UNL1	  0.014911
    190     C	-4.0698109396 -3.3718591100  4.5107576937	  C3      1    UNL1	 -0.006014
    191     C	-3.1627423998 -4.9429479069  4.5107576937	  C3      1    UNL1	 -0.006963
    192     C	-1.3486053202 -4.9429479069  4.5107576937	  C3      1    UNL1	 -0.010185
    193     C	-5.3978514537 -3.3718591100  3.1827171796	  C3      1    UNL1	  0.000014
    194     C	-4.7977489327 -5.2187847597  3.1827171796	  C3      1    UNL1	 -0.002574
    195     C	-3.2266601358 -6.3602475859  3.1827171796	  C3      1    UNL1	 -0.003824
    196     C	-1.2846875842 -6.3602475859  3.1827171796	  C3      1    UNL1	 -0.004619
    197     C	-5.8839480192 -3.3718591100  1.3685801000	  C3      1    UNL1	  0.002039
    198     C	-5.3978514537 -5.1859961896  1.3685801000	  C3      1    UNL1	 -0.000909
    199     C	-4.0698109396 -6.5140367037  1.3685801000	  C3      1    UNL1	 -0.002267
    200     C	-2.2556738600 -7.0001332692  1.3685801000	  C3      1    UNL1	 -0.002806
    201     C	-0.4415367804 -6.5140367037  1.3685801000	  C3      1    UNL1	 -0.002630
    202     C	-4.7977489327 -5.2187847597 -0.4455569796	  C3      1    UNL1	 -0.001423
    203     C	-3.2266601358 -6.3602475859 -0.4455569796	  C3      1    UNL1	 -0.002680
    204     C	-1.2846875842 -6.3602475859 -0.4455569796	  C3      1    UNL1	 -0.003002
    205     C	 4.0698109396 -3.3718591100  4.5107576937	  C3      1    UNL1	  0.014911
    206     C	 1.3486053202 -4.9429479069  4.5107576937	  C3      1    UNL1	 -0.003890
    207     C	 3.1627423998 -4.9429479069  4.5107576937	  C3      1    UNL1	  0.004167
    208     C	 5.3978514537 -3.3718591100  3.1827171796	  C3      1    UNL1	  0.023229
    209     C	 1.2846875842 -6.3602475859  3.1827171796	  C3      1    UNL1	 -0.000872
    210     C	 3.2266601358 -6.3602475859  3.1827171796	  C3      1    UNL1	  0.003924
    211     C	 4.7977489327 -5.2187847597  3.1827171796	  C3      1    UNL1	  0.010255
    212     C	 5.8839480192 -3.3718591100  1.3685801000	  C3      1    UNL1	  0.023592
    213     C	 0.4415367804 -6.5140367037  1.3685801000	  C3      1    UNL1	 -0.001458
    214     C	 2.2556738600 -7.0001332692  1.3685801000	  C3      1    UNL1	  0.002132
    215     C	 4.0698109396 -6.5140367037  1.3685801000	  C3      1    UNL1	  0.006494
    216     C	 5.3978514537 -5.1859961896  1.3685801000	  C3      1    UNL1	  0.012786
    217     C	 1.2846875842 -6.3602475859 -0.4455569796	  C3      1    UNL1	  0.000355
    218     C	 3.2266601358 -6.3602475859 -0.4455569796	  C3      1    UNL1	  0.005441
    219     C	 4.7977489327 -5.2187847597 -0.4455569796	  C3      1    UNL1	  0.012960
    220     C	 2.2953686042  3.6648278642  3.2336618320	  C3      1    UNL1	 -0.012459
    221     C	 0.3275571558  3.6648278642  3.2336618320	  C3      1    UNL1	 -0.014691
    222     C	 4.2944416620  3.8776972189  1.9751991757	  C3      1    UNL1	 -0.002225
    223     C	 2.7844720516  5.1860933343  1.9751991757	  C3      1    UNL1	 -0.004799
    224     C	 0.8068324370  5.4704349842  1.9751991757	  C3      1    UNL1	 -0.004958
    225     C	 0.3275571558  6.2714257980  0.1566679482	  C3      1    UNL1	 -0.002419
    226     C	 4.8573365858  1.9606531600 -3.6802806657	  C3      1    UNL1	  0.002809
    227     C	 3.2792743284  1.9606531600 -4.9387433220	  C3      1    UNL1	 -0.012316
    228     C	 0.3275571558  3.6648278642 -4.9387433220	  C3      1    UNL1	 -0.019863
    229     C	 0.3275571558  0.2564784558 -4.9387433220	  C3      1    UNL1	 -0.084003
    230     C	 2.2953686042  0.2564784558 -4.9387433220	  C3      1    UNL1	 -0.024944
    231     C	 1.3114628800  1.9606531600 -5.3878834440	  C3      1    UNL1	 -0.039703
    232     C	-0.3275571558  3.6648278642  3.2336618320	  C3      1    UNL1	 -0.009445
    233     C	-2.2953686042  3.6648278642  3.2336618320	  C3      1    UNL1	  0.015261
    234     C	-1.8160933230  5.4704349842  1.9751991757	  C3      1    UNL1	  0.002266
    235     C	-3.6335163375  4.6404457039  1.9751991757	  C3      1    UNL1	  0.014649
    236     C	-0.3275571558  6.2714257980  0.1566679482	  C3      1    UNL1	 -0.001572
    237     C	-0.3275571558  3.6648278642 -4.9387433220	  C3      1    UNL1	 -0.017225
    238     C	-3.2792743284  1.9606531600 -4.9387433220	  C3      1    UNL1	  0.011504
    239     C	-2.2953686042  0.2564784558 -4.9387433220	  C3      1    UNL1	 -0.019590
    240     C	-0.3275571558  0.2564784558 -4.9387433220	  C3      1    UNL1	 -0.082790
    241     C	-1.3114628800  1.9606531600 -5.3878834440	  C3      1    UNL1	 -0.027939
    242     C	-1.3114628800 -1.9606531600  5.3878834440	  C3      1    UNL1	 -0.039703
    243     C	-0.3275571558 -0.2564784558  4.9387433220	  C3      1    UNL1	 -0.084003
    244     C	-2.2953686042 -0.2564784558  4.9387433220	  C3      1    UNL1	 -0.024944
    245     C	-3.2792743284 -1.9606531600  4.9387433220	  C3      1    UNL1	 -0.012316
    246     C	-0.3275571558 -3.6648278642  4.9387433220	  C3      1    UNL1	 -0.019863
    247     C	-0.3275571558 -6.2714257980 -0.1566679482	  C3      1    UNL1	 -0.002419
    248     C	-3.6335163375 -4.6404457039 -1.9751991757	  C3      1    UNL1	 -0.003887
    249     C	-1.8160933230 -5.4704349842 -1.9751991757	  C3      1    UNL1	 -0.005163
    250     C	-2.2953686042 -3.6648278642 -3.2336618320	  C3      1    UNL1	 -0.012459
    251     C	-0.3275571558 -3.6648278642 -3.2336618320	  C3      1    UNL1	 -0.014691
    252     C	 1.3114628800 -1.9606531600  5.3878834440	  C3      1    UNL1	 -0.027939
    253     C	 3.2792743284 -1.9606531600  4.9387433220	  C3      1    UNL1	  0.011504
    254     C	 2.2953686042 -0.2564784558  4.9387433220	  C3      1    UNL1	 -0.019590
    255     C	 0.3275571558 -0.2564784558  4.9387433220	  C3      1    UNL1	 -0.082790
    256     C	 0.3275571558 -3.6648278642  4.9387433220	  C3      1    UNL1	 -0.017225
    257     C	 4.8573365858 -1.9606531600  3.6802806657	  C3      1    UNL1	  0.044559
    258     C	 0.3275571558 -6.2714257980 -0.1566679482	  C3      1    UNL1	 -0.001572
    259     C	 0.8068324370 -5.4704349842 -1.9751991757	  C3      1    UNL1	 -0.001576
    260     C	 2.7844720516 -5.1860933343 -1.9751991757	  C3      1    UNL1	  0.007382
    261     C	 4.2944416620 -3.8776972189 -1.9751991757	  C3      1    UNL1	  0.026124
    262     C	 0.3275571558 -3.6648278642 -3.2336618320	  C3      1    UNL1	 -0.009445
    263     C	 2.2953686042 -3.6648278642 -3.2336618320	  C3      1    UNL1	  0.015261
    264     C	-1.6660351676  1.6909584000  4.7138740791	  C3      1    UNL1	 -0.016084
    265     C	-3.6185857424  1.6909584000  4.7138740791	  C3      1    UNL1	  0.020274
    266     C	-4.5948610299  0.0000000000  4.7138740791	  C3      1    UNL1	  0.010997
    267     C	-5.0049451861  2.7266258302  3.6078430246	  C3      1    UNL1	  0.031517
    268     C	-6.1040104870  1.0164468400  3.6078430246	  C3      1    UNL1	  0.021153
    269     C	-6.1040104870 -1.0164468400  3.6078430246	  C3      1    UNL1	  0.009169
    270     C	-5.5813628705  3.6854551594  1.9525505749	  C3      1    UNL1	  0.022604
    271     C	-6.8893642474  2.0452733111  1.9525505749	  C3      1    UNL1	  0.020154
    272     C	-7.3561845341  0.0000000000  1.9525505749	  C3      1    UNL1	  0.013101
    273     C	-6.8893642474 -2.0452733111  1.9525505749	  C3      1    UNL1	  0.006300
    274     C	-6.2501534796  3.6078430246  0.0000000000	  C3      1    UNL1	  0.019937
    275     C	-7.3561845341  1.9525505749  0.0000000000	  C3      1    UNL1	  0.017619
    276     C	-7.7445709913  0.0000000000  0.0000000000	  C3      1    UNL1	  0.012371
    277     C	-7.3561845341 -1.9525505749  0.0000000000	  C3      1    UNL1	  0.006867
    278     C	-6.2501534796 -3.6078430246  0.0000000000	  C3      1    UNL1	  0.002157
    279     C	-6.8893642474  2.0452733111 -1.9525505749	  C3      1    UNL1	  0.020154
    280     C	-7.3561845341  0.0000000000 -1.9525505749	  C3      1    UNL1	  0.013101
    281     C	-6.8893642474 -2.0452733111 -1.9525505749	  C3      1    UNL1	  0.006300
    282     C	-5.5813628705 -3.6854551594 -1.9525505749	  C3      1    UNL1	  0.000715
    283     C	-6.1040104870  1.0164468400 -3.6078430246	  C3      1    UNL1	  0.021153
    284     C	-6.1040104870 -1.0164468400 -3.6078430246	  C3      1    UNL1	  0.009169
    285     C	-5.0049451861 -2.7266258302 -3.6078430246	  C3      1    UNL1	  0.000078
    286     C	-4.5948610299  0.0000000000 -4.7138740791	  C3      1    UNL1	  0.010997
    287     C	-3.6185857424 -1.6909584000 -4.7138740791	  C3      1    UNL1	 -0.007364
    288     C	-1.6660351676 -1.6909584000 -4.7138740791	  C3      1    UNL1	 -0.040171
    289     C	 4.5948610299  0.0000000000  4.7138740791	  C3      1    UNL1	  0.010997
    290     C	 3.6185857424  1.6909584000  4.7138740791	  C3      1    UNL1	 -0.007364
    291     C	 1.6660351676  1.6909584000  4.7138740791	  C3      1    UNL1	 -0.040171
    292     C	 6.2501534796  0.0000000000  3.6078430246	  C3      1    UNL1	  0.014692
    293     C	 5.6774211454  1.9505472021  3.6078430246	  C3      1    UNL1	  0.004425
    294     C	 4.1410626120  3.2818094494  3.6078430246	  C3      1    UNL1	 -0.004282
    295     C	 5.6774211454 -1.9505472021  3.6078430246	  C3      1    UNL1	  0.027752
    296     C	 7.3561845341  0.0000000000  1.9525505749	  C3      1    UNL1	  0.013101
    297     C	 6.8893642474  2.0452733111  1.9525505749	  C3      1    UNL1	  0.006300
    298     C	 5.5813628705  3.6854551594  1.9525505749	  C3      1    UNL1	  0.000715
    299     C	 6.8893642474 -2.0452733111  1.9525505749	  C3      1    UNL1	  0.020154
    300     C	 7.7445709913  0.0000000000  0.0000000000	  C3      1    UNL1	  0.012371
    301     C	 7.3561845341  1.9525505749  0.0000000000	  C3      1    UNL1	  0.006867
    302     C	 6.2501534796  3.6078430246  0.0000000000	  C3      1    UNL1	  0.002157
    303     C	 6.2501534796 -3.6078430246  0.0000000000	  C3      1    UNL1	  0.019937
    304     C	 7.3561845341 -1.9525505749  0.0000000000	  C3      1    UNL1	  0.017619
    305     C	 7.3561845341  0.0000000000 -1.9525505749	  C3      1    UNL1	  0.013101
    306     C	 6.8893642474  2.0452733111 -1.9525505749	  C3      1    UNL1	  0.006300
    307     C	 5.5813628705 -3.6854551594 -1.9525505749	  C3      1    UNL1	  0.022604
    308     C	 6.8893642474 -2.0452733111 -1.9525505749	  C3      1    UNL1	  0.020154
    309     C	 6.2501534796  0.0000000000 -3.6078430246	  C3      1    UNL1	  0.014692
    310     C	 5.6774211454  1.9505472021 -3.6078430246	  C3      1    UNL1	  0.004425
    311     C	 4.1410626120 -3.2818094494 -3.6078430246	  C3      1    UNL1	  0.028597
    312     C	 5.6774211454 -1.9505472021 -3.6078430246	  C3      1    UNL1	  0.027752
    313     C	 4.5948610299  0.0000000000 -4.7138740791	  C3      1    UNL1	  0.010997
    314     C	 1.6660351676 -1.6909584000 -4.7138740791	  C3      1    UNL1	 -0.016084
    315     C	 3.6185857424 -1.6909584000 -4.7138740791	  C3      1    UNL1	  0.020274
    316     C	 5.2294628617  5.2829972557  0.6723241145	  C3      1    UNL1	 -0.000988
    317     C	 3.7241450742  6.5873625436  0.6723241145	  C3      1    UNL1	 -0.002321
    318     C	 1.7525980519  6.8708282110  0.6723241145	  C3      1    UNL1	 -0.002716
    319     C	 6.3374822891  3.3718591100 -1.3685801000	  C3      1    UNL1	  0.002535
    320     C	 5.8699357291  5.2687700708 -1.3685801000	  C3      1    UNL1	 -0.000454
    321     C	 4.5744053315  6.7311215908 -1.3685801000	  C3      1    UNL1	 -0.001846
    322     C	 2.7476814975  7.4239065599 -1.3685801000	  C3      1    UNL1	 -0.002417
    323     C	 0.8082446431  7.1884162907 -1.3685801000	  C3      1    UNL1	 -0.002285
    324     C	 5.7906236529  3.3718591100 -3.4094843145	  C3      1    UNL1	  0.000493
    325     C	 5.2294628617  5.2829972557 -3.4094843145	  C3      1    UNL1	 -0.002054
    326     C	 3.7241450742  6.5873625436 -3.4094843145	  C3      1    UNL1	 -0.003265
    327     C	 1.7525980519  6.8708282110 -3.4094843145	  C3      1    UNL1	 -0.003923
    328     C	 4.2965780745  3.3718591100 -4.9035298929	  C3      1    UNL1	 -0.005459
    329     C	 3.2761259673  5.1393340065 -4.9035298929	  C3      1    UNL1	 -0.006426
    330     C	 1.2352217527  5.1393340065 -4.9035298929	  C3      1    UNL1	 -0.009419
    331     C	-2.7587496681  6.8708282110  0.6723241145	  C3      1    UNL1	  0.003452
    332     C	-4.5705736759  6.0433959114  0.6723241145	  C3      1    UNL1	  0.008903
    333     C	-5.6474333484  4.3677695535  0.6723241145	  C3      1    UNL1	  0.017556
    334     C	-1.7636662225  7.4239065599 -1.3685801000	  C3      1    UNL1	  0.000995
    335     C	-3.7031030769  7.1884162907 -1.3685801000	  C3      1    UNL1	  0.004455
    336     C	-5.3109513411  6.0785987659 -1.3685801000	  C3      1    UNL1	  0.008995
    337     C	-6.2188723545  4.3486998057 -1.3685801000	  C3      1    UNL1	  0.015730
    338     C	-0.7872026458  6.5873625436 -3.4094843145	  C3      1    UNL1	 -0.001998
    339     C	-2.7587496681  6.8708282110 -3.4094843145	  C3      1    UNL1	  0.002046
    340     C	-4.5705736759  6.0433959114 -3.4094843145	  C3      1    UNL1	  0.006583
    341     C	-5.6474333484  4.3677695535 -3.4094843145	  C3      1    UNL1	  0.013515
    342     C	-1.2352217527  5.1393340065 -4.9035298929	  C3      1    UNL1	 -0.004620
    343     C	-3.2761259673  5.1393340065 -4.9035298929	  C3      1    UNL1	  0.002975
    344     C	-4.2965780745  3.3718591100 -4.9035298929	  C3      1    UNL1	  0.011362
    345     C	-4.2965780745 -3.3718591100  4.9035298929	  C3      1    UNL1	 -0.005459
    346     C	-3.2761259673 -5.1393340065  4.9035298929	  C3      1    UNL1	 -0.006426
    347     C	-1.2352217527 -5.1393340065  4.9035298929	  C3      1    UNL1	 -0.009419
    348     C	-5.6474333484 -4.3677695535  3.4094843145	  C3      1    UNL1	 -0.001044
    349     C	-4.5705736759 -6.0433959114  3.4094843145	  C3      1    UNL1	 -0.002756
    350     C	-2.7587496681 -6.8708282110  3.4094843145	  C3      1    UNL1	 -0.003644
    351     C	-0.7872026458 -6.5873625436  3.4094843145	  C3      1    UNL1	 -0.004106
    352     C	-6.2188723545 -4.3486998057  1.3685801000	  C3      1    UNL1	  0.000748
    353     C	-5.3109513411 -6.0785987659  1.3685801000	  C3      1    UNL1	 -0.001280
    354     C	-3.7031030769 -7.1884162907  1.3685801000	  C3      1    UNL1	 -0.002216
    355     C	-1.7636662225 -7.4239065599  1.3685801000	  C3      1    UNL1	 -0.002450
    356     C	-5.6474333484 -4.3677695535 -0.6723241145	  C3      1    UNL1	  0.000225
    357     C	-4.5705736759 -6.0433959114 -0.6723241145	  C3      1    UNL1	 -0.001797
    358     C	-2.7587496681 -6.8708282110 -0.6723241145	  C3      1    UNL1	 -0.002621
    359     C	 4.2965780745 -3.3718591100  4.9035298929	  C3      1    UNL1	  0.011362
    360     C	 1.2352217527 -5.1393340065  4.9035298929	  C3      1    UNL1	 -0.004620
    361     C	 3.2761259673 -5.1393340065  4.9035298929	  C3      1    UNL1	  0.002975
    362     C	 5.7906236529 -3.3718591100  3.4094843145	  C3      1    UNL1	  0.019202
    363     C	 1.7525980519 -6.8708282110  3.4094843145	  C3      1    UNL1	  0.000055
    364     C	 3.7241450742 -6.5873625436  3.4094843145	  C3      1    UNL1	  0.004160
    365     C	 5.2294628617 -5.2829972557  3.4094843145	  C3      1    UNL1	  0.009565
    366     C	 6.3374822891 -3.3718591100  1.3685801000	  C3      1    UNL1	  0.020473
    367     C	 0.8082446431 -7.1884162907  1.3685801000	  C3      1    UNL1	 -0.000541
    368     C	 2.7476814975 -7.4239065599  1.3685801000	  C3      1    UNL1	  0.002638
    369     C	 4.5744053315 -6.7311215908  1.3685801000	  C3      1    UNL1	  0.006535
    370     C	 5.8699357291 -5.2687700708  1.3685801000	  C3      1    UNL1	  0.011992
    371     C	 1.7525980519 -6.8708282110 -0.6723241145	  C3      1    UNL1	  0.001301
    372     C	 3.7241450742 -6.5873625436 -0.6723241145	  C3      1    UNL1	  0.005926
    373     C	 5.2294628617 -5.2829972557 -0.6723241145	  C3      1    UNL1	  0.012650
    374     C	 2.2877381674  3.6516115600  3.8613333341	  C3      1    UNL1	 -0.014222
    375     C	 0.3351875926  3.6516115600  3.8613333341	  C3      1    UNL1	 -0.018229
    376     C	 2.8102150370  5.2424626094  2.7553022796	  C3      1    UNL1	 -0.005570
    377     C	 0.7980132834  5.5317735447  2.7553022796	  C3      1    UNL1	 -0.005843
    378     C	 0.2625272174  6.5563405742  1.1000098299	  C3      1    UNL1	 -0.002296
    379     C	 4.9193059046  1.9606531600 -4.4603837696	  C3      1    UNL1	  0.000458
    380     C	 3.2640134549  1.9606531600 -5.5664148241	  C3      1    UNL1	 -0.013184
    381     C	 2.2877381674  3.6516115600 -5.5664148241	  C3      1    UNL1	 -0.014427
    382     C	 0.3351875926  3.6516115600 -5.5664148241	  C3      1    UNL1	 -0.018946
    383     C	 0.3351875926  0.2696947600 -5.5664148241	  C3      1    UNL1	 -0.073445
    384     C	 2.2877381674  0.2696947600 -5.5664148241	  C3      1    UNL1	 -0.027682
    385     C	 1.3114628800  1.9606531600 -5.9548012813	  C3      1    UNL1	 -0.033693
    386     C	-0.3351875926  3.6516115600  3.8613333341	  C3      1    UNL1	 -0.013897
    387     C	-2.2877381674  3.6516115600  3.8613333341	  C3      1    UNL1	  0.008266
    388     C	-1.8249124766  5.5317735447  2.7553022796	  C3      1    UNL1	  0.001523
    389     C	-3.6740976111  4.6872789902  2.7553022796	  C3      1    UNL1	  0.012999
    390     C	-0.2625272174  6.5563405742  1.1000098299	  C3      1    UNL1	 -0.001622
    391     C	-0.3351875926  3.6516115600 -5.5664148241	  C3      1    UNL1	 -0.016964
    392     C	-2.2877381674  3.6516115600 -5.5664148241	  C3      1    UNL1	 -0.003839
    393     C	-3.2640134549  1.9606531600 -5.5664148241	  C3      1    UNL1	  0.001563
    394     C	-2.2877381674  0.2696947600 -5.5664148241	  C3      1    UNL1	 -0.024589
    395     C	-0.3351875926  0.2696947600 -5.5664148241	  C3      1    UNL1	 -0.072747
    396     C	-1.3114628800  1.9606531600 -5.9548012813	  C3      1    UNL1	 -0.026174
    397     C	-1.3114628800 -1.9606531600  5.9548012813	  C3      1    UNL1	 -0.033693
    398     C	-0.3351875926 -0.2696947600  5.5664148241	  C3      1    UNL1	 -0.073445
    399     C	-2.2877381674 -0.2696947600  5.5664148241	  C3      1    UNL1	 -0.027682
    400     C	-3.2640134549 -1.9606531600  5.5664148241	  C3      1    UNL1	 -0.013184
    401     C	-2.2877381674 -3.6516115600  5.5664148241	  C3      1    UNL1	 -0.014427
    402     C	-0.3351875926 -3.6516115600  5.5664148241	  C3      1    UNL1	 -0.018946
    403     C	-0.2625272174 -6.5563405742 -1.1000098299	  C3      1    UNL1	 -0.002296
    404     C	-3.6740976111 -4.6872789902 -2.7553022796	  C3      1    UNL1	 -0.004607
    405     C	-1.8249124766 -5.5317735447 -2.7553022796	  C3      1    UNL1	 -0.005993
    406     C	-2.2877381674 -3.6516115600 -3.8613333341	  C3      1    UNL1	 -0.014222
    407     C	-0.3351875926 -3.6516115600 -3.8613333341	  C3      1    UNL1	 -0.018229
    408     C	 1.3114628800 -1.9606531600  5.9548012813	  C3      1    UNL1	 -0.026174
    409     C	 3.2640134549 -1.9606531600  5.5664148241	  C3      1    UNL1	  0.001563
    410     C	 2.2877381674 -0.2696947600  5.5664148241	  C3      1    UNL1	 -0.024589
    411     C	 0.3351875926 -0.2696947600  5.5664148241	  C3      1    UNL1	 -0.072747
    412     C	 0.3351875926 -3.6516115600  5.5664148241	  C3      1    UNL1	 -0.016964
    413     C	 2.2877381674 -3.6516115600  5.5664148241	  C3      1    UNL1	 -0.003839
    414     C	 4.9193059046 -1.9606531600  4.4603837696	  C3      1    UNL1	  0.023210
    415     C	 0.2625272174 -6.5563405742 -1.1000098299	  C3      1    UNL1	 -0.001622
    416     C	 0.7980132834 -5.5317735447 -2.7553022796	  C3      1    UNL1	 -0.002353
    417     C	 2.8102150370 -5.2424626094 -2.7553022796	  C3      1    UNL1	  0.006357
    418     C	 0.3351875926 -3.6516115600 -3.8613333341	  C3      1    UNL1	 -0.013897
    419     C	 2.2877381674 -3.6516115600 -3.8613333341	  C3      1    UNL1	  0.008266
    420     C	-1.6728238550  1.6792000484  5.3272850837	  C3      1    UNL1	 -0.023930
    421     C	-3.6117970550  1.6792000484  5.3272850837	  C3      1    UNL1	  0.007000
    422     C	-4.5812836549  0.0000000000  5.3272850837	  C3      1    UNL1	  0.004575
    423     C	-3.1609167715  3.6069861599  4.3428425902	  C3      1    UNL1	  0.011066
    424     C	-5.0286737970  2.7540101070  4.3428425902	  C3      1    UNL1	  0.020169
    425     C	-6.1387773226  1.0266553040  4.3428425902	  C3      1    UNL1	  0.015153
    426     C	-6.1387773226 -1.0266553040  4.3428425902	  C3      1    UNL1	  0.006580
    427     C	-5.0971367001  4.2518837803  2.8345891868	  C3      1    UNL1	  0.017364
    428     C	-6.6143027561  2.8858213276  2.8345891868	  C3      1    UNL1	  0.018449
    429     C	-7.4446752587  1.0207741506  2.8345891868	  C3      1    UNL1	  0.013966
    430     C	-7.4446752587 -1.0207741506  2.8345891868	  C3      1    UNL1	  0.008254
    431     C	-6.6143027561 -2.8858213276  2.8345891868	  C3      1    UNL1	  0.003058
    432     C	-7.3891159281  2.9390975163  0.9844424935	  C3      1    UNL1	  0.016040
    433     C	-8.1302992209  1.0258828953  0.9844424935	  C3      1    UNL1	  0.012749
    434     C	-8.1302992209 -1.0258828953  0.9844424935	  C3      1    UNL1	  0.008342
    435     C	-7.3891159281 -2.9390975163  0.9844424935	  C3      1    UNL1	  0.004104
    436     C	-7.3891159281  2.9390975163 -0.9844424935	  C3      1    UNL1	  0.016040
    437     C	-8.1302992209  1.0258828953 -0.9844424935	  C3      1    UNL1	  0.012749
    438     C	-8.1302992209 -1.0258828953 -0.9844424935	  C3      1    UNL1	  0.008342
    439     C	-7.3891159281 -2.9390975163 -0.9844424935	  C3      1    UNL1	  0.004104
    440     C	-6.6143027561  2.8858213276 -2.8345891868	  C3      1    UNL1	  0.018449
    441     C	-7.4446752587  1.0207741506 -2.8345891868	  C3      1    UNL1	  0.013966
    442     C	-7.4446752587 -1.0207741506 -2.8345891868	  C3      1    UNL1	  0.008254
    443     C	-6.6143027561 -2.8858213276 -2.8345891868	  C3      1    UNL1	  0.003058
    444     C	-5.0971367001 -4.2518837803 -2.8345891868	  C3      1    UNL1	 -0.001495
    445     C	-6.1387773226  1.0266553040 -4.3428425902	  C3      1    UNL1	  0.015153
    446     C	-6.1387773226 -1.0266553040 -4.3428425902	  C3      1    UNL1	  0.006580
    447     C	-5.0286737970 -2.7540101070 -4.3428425902	  C3      1    UNL1	 -0.001288
    448     C	-3.1609167715 -3.6069861599 -4.3428425902	  C3      1    UNL1	 -0.010161
    449     C	-4.5812836549  0.0000000000 -5.3272850837	  C3      1    UNL1	  0.004575
    450     C	-3.6117970550 -1.6792000484 -5.3272850837	  C3      1    UNL1	 -0.009411
    451     C	-1.6728238550 -1.6792000484 -5.3272850837	  C3      1    UNL1	 -0.038254
    452     C	 4.5812836549  0.0000000000  5.3272850837	  C3      1    UNL1	  0.004575
    453     C	 3.6117970550  1.6792000484  5.3272850837	  C3      1    UNL1	 -0.009411
    454     C	 1.6728238550  1.6792000484  5.3272850837	  C3      1    UNL1	 -0.038254
    455     C	 6.2863880707  0.0000000000  4.3428425902	  C3      1    UNL1	  0.010802
    456     C	 5.7079036231  1.9701371010  4.3428425902	  C3      1    UNL1	  0.002606
    457     C	 4.1561150051  3.3147695928  4.3428425902	  C3      1    UNL1	 -0.005404
    458     C	 7.5519629452  0.0000000000  2.8345891868	  C3      1    UNL1	  0.011093
    459     C	 7.1275011860  1.9969355725  2.8345891868	  C3      1    UNL1	  0.005566
    460     C	 5.9275092028  3.6485828430  2.8345891868	  C3      1    UNL1	  0.000714
    461     C	 7.1275011860 -1.9969355725  2.8345891868	  C3      1    UNL1	  0.016588
    462     C	 8.2253612706  0.0000000000  0.9844424935	  C3      1    UNL1	  0.010578
    463     C	 7.8483502959  2.0168305790  0.9844424935	  C3      1    UNL1	  0.006161
    464     C	 6.7682347930  3.7612770127  0.9844424935	  C3      1    UNL1	  0.002206
    465     C	 6.7682347930 -3.7612770127  0.9844424935	  C3      1    UNL1	  0.016574
    466     C	 7.8483502959 -2.0168305790  0.9844424935	  C3      1    UNL1	  0.014660
    467     C	 8.2253612706  0.0000000000 -0.9844424935	  C3      1    UNL1	  0.010578
    468     C	 7.8483502959  2.0168305790 -0.9844424935	  C3      1    UNL1	  0.006161
    469     C	 6.7682347930  3.7612770127 -0.9844424935	  C3      1    UNL1	  0.002206
    470     C	 6.7682347930 -3.7612770127 -0.9844424935	  C3      1    UNL1	  0.016574
    471     C	 7.8483502959 -2.0168305790 -0.9844424935	  C3      1    UNL1	  0.014660
    472     C	 7.5519629452  0.0000000000 -2.8345891868	  C3      1    UNL1	  0.011093
    473     C	 7.1275011860  1.9969355725 -2.8345891868	  C3      1    UNL1	  0.005566
    474     C	 5.9275092028 -3.6485828430 -2.8345891868	  C3      1    UNL1	  0.018876
    475     C	 7.1275011860 -1.9969355725 -2.8345891868	  C3      1    UNL1	  0.016588
    476     C	 6.2863880707  0.0000000000 -4.3428425902	  C3      1    UNL1	  0.010802
    477     C	 4.1561150051 -3.3147695928 -4.3428425902	  C3      1    UNL1	  0.017483
    478     C	 5.7079036231 -1.9701371010 -4.3428425902	  C3      1    UNL1	  0.018843
    479     C	 4.5812836549  0.0000000000 -5.3272850837	  C3      1    UNL1	  0.004575
    480     C	 1.6728238550 -1.6792000484 -5.3272850837	  C3      1    UNL1	 -0.023930
    481     C	 3.6117970550 -1.6792000484 -5.3272850837	  C3      1    UNL1	  0.007000
    482     C	 3.7286830316  6.5972992843  1.4591598207	  C3      1    UNL1	 -0.002500
    483     C	 6.2394268072  5.2903334170 -0.3593714068	  C3      1    UNL1	  0.000017
    484     C	 5.0125164371  6.8288303589 -0.3593714068	  C3      1    UNL1	 -0.001411
    485     C	 3.2395795842  7.6826317480 -0.3593714068	  C3      1    UNL1	 -0.002022
    486     C	 1.2717681358  7.6826317480 -0.3593714068	  C3      1    UNL1	 -0.001962
    487     C	 6.6773060485  3.3718591100 -2.3777887932	  C3      1    UNL1	  0.002341
    488     C	 6.2394268072  5.2903334170 -2.3777887932	  C3      1    UNL1	 -0.000426
    489     C	 5.0125164371  6.8288303589 -2.3777887932	  C3      1    UNL1	 -0.001759
    490     C	 3.2395795842  7.6826317480 -2.3777887932	  C3      1    UNL1	 -0.002377
    491     C	 1.2717681358  7.6826317480 -2.3777887932	  C3      1    UNL1	 -0.002431
    492     C	 5.8015475658  3.3718591100 -4.1963200207	  C3      1    UNL1	 -0.000346
    493     C	 5.2386526420  5.2889031689 -4.1963200207	  C3      1    UNL1	 -0.002430
    494     C	 3.7286830316  6.5972992843 -4.1963200207	  C3      1    UNL1	 -0.003521
    495     C	 1.7510434170  6.8816409342 -4.1963200207	  C3      1    UNL1	 -0.004234
    496     C	 3.2395795842  5.0760338142 -5.4547826770	  C3      1    UNL1	 -0.006666
    497     C	-4.5777273175  6.0516516539  1.4591598207	  C3      1    UNL1	  0.008591
    498     C	-1.2717681358  7.6826317480 -0.3593714068	  C3      1    UNL1	  0.000354
    499     C	-3.2395795842  7.6826317480 -0.3593714068	  C3      1    UNL1	  0.003258
    500     C	-5.0125164371  6.8288303589 -0.3593714068	  C3      1    UNL1	  0.006888
    501     C	-6.2394268072  5.2903334170 -0.3593714068	  C3      1    UNL1	  0.011832
    502     C	-1.2717681358  7.6826317480 -2.3777887932	  C3      1    UNL1	 -0.000122
    503     C	-3.2395795842  7.6826317480 -2.3777887932	  C3      1    UNL1	  0.002691
    504     C	-5.0125164371  6.8288303589 -2.3777887932	  C3      1    UNL1	  0.006037
    505     C	-6.2394268072  5.2903334170 -2.3777887932	  C3      1    UNL1	  0.010543
    506     C	-6.6773060485  3.3718591100 -2.3777887932	  C3      1    UNL1	  0.017212
    507     C	-0.7826646884  6.5972992843 -4.1963200207	  C3      1    UNL1	 -0.002601
    508     C	-2.7603043030  6.8816409342 -4.1963200207	  C3      1    UNL1	  0.001270
    509     C	-4.5777273175  6.0516516539 -4.1963200207	  C3      1    UNL1	  0.005253
    510     C	-5.6579147661  4.3708471754 -4.1963200207	  C3      1    UNL1	  0.010725
    511     C	-3.2395795842  5.0760338142 -5.4547826770	  C3      1    UNL1	  0.001469
    512     C	-3.2395795842 -5.0760338142  5.4547826770	  C3      1    UNL1	 -0.006666
    513     C	-5.6579147661 -4.3708471754  4.1963200207	  C3      1    UNL1	 -0.001580
    514     C	-4.5777273175 -6.0516516539  4.1963200207	  C3      1    UNL1	 -0.003047
    515     C	-2.7603043030 -6.8816409342  4.1963200207	  C3      1    UNL1	 -0.003906
    516     C	-0.7826646884 -6.5972992843  4.1963200207	  C3      1    UNL1	 -0.004529
    517     C	-6.6773060485 -3.3718591100  2.3777887932	  C3      1    UNL1	  0.002341
    518     C	-6.2394268072 -5.2903334170  2.3777887932	  C3      1    UNL1	 -0.000426
    519     C	-5.0125164371 -6.8288303589  2.3777887932	  C3      1    UNL1	 -0.001759
    520     C	-3.2395795842 -7.6826317480  2.3777887932	  C3      1    UNL1	 -0.002377
    521     C	-1.2717681358 -7.6826317480  2.3777887932	  C3      1    UNL1	 -0.002431
    522     C	-6.2394268072 -5.2903334170  0.3593714068	  C3      1    UNL1	  0.000017
    523     C	-5.0125164371 -6.8288303589  0.3593714068	  C3      1    UNL1	 -0.001411
    524     C	-3.2395795842 -7.6826317480  0.3593714068	  C3      1    UNL1	 -0.002022
    525     C	-1.2717681358 -7.6826317480  0.3593714068	  C3      1    UNL1	 -0.001962
    526     C	-4.5777273175 -6.0516516539 -1.4591598207	  C3      1    UNL1	 -0.001971
    527     C	 3.2395795842 -5.0760338142  5.4547826770	  C3      1    UNL1	  0.001469
    528     C	 5.8015475658 -3.3718591100  4.1963200207	  C3      1    UNL1	  0.014638
    529     C	 1.7510434170 -6.8816409342  4.1963200207	  C3      1    UNL1	 -0.000594
    530     C	 3.7286830316 -6.5972992843  4.1963200207	  C3      1    UNL1	  0.003167
    531     C	 5.2386526420 -5.2889031689  4.1963200207	  C3      1    UNL1	  0.007698
    532     C	 6.6773060485 -3.3718591100  2.3777887932	  C3      1    UNL1	  0.017212
    533     C	 1.2717681358 -7.6826317480  2.3777887932	  C3      1    UNL1	 -0.000122
    534     C	 3.2395795842 -7.6826317480  2.3777887932	  C3      1    UNL1	  0.002691
    535     C	 5.0125164371 -6.8288303589  2.3777887932	  C3      1    UNL1	  0.006037
    536     C	 6.2394268072 -5.2903334170  2.3777887932	  C3      1    UNL1	  0.010543
    537     C	 1.2717681358 -7.6826317480  0.3593714068	  C3      1    UNL1	  0.000354
    538     C	 3.2395795842 -7.6826317480  0.3593714068	  C3      1    UNL1	  0.003258
    539     C	 5.0125164371 -6.8288303589  0.3593714068	  C3      1    UNL1	  0.006888
    540     C	 6.2394268072 -5.2903334170  0.3593714068	  C3      1    UNL1	  0.011832
    541     C	 3.7286830316 -6.5972992843 -1.4591598207	  C3      1    UNL1	  0.005687
    542     C	 2.2809494800  3.6398532084  4.4747443387	  C3      1    UNL1	 -0.015133
    543     C	 0.3419762800  3.6398532084  4.4747443387	  C3      1    UNL1	 -0.020072
    544     C	 2.8252674301  5.2754227528  3.4903018452	  C3      1    UNL1	 -0.006227
    545     C	 0.7928565635  5.5676393199  3.4903018452	  C3      1    UNL1	 -0.006642
    546     C	 4.5966616278  5.6092360030  1.9820484418	  C3      1    UNL1	 -0.002186
    547     C	 2.8286289359  6.6300101536  1.9820484418	  C3      1    UNL1	 -0.003209
    548     C	 0.7982644500  6.8434100602  1.9820484418	  C3      1    UNL1	 -0.002872
    549     C	 4.9555404957  1.9606531600 -5.1953833352	  C3      1    UNL1	 -0.001456
    550     C	 0.7928565635  5.5676393199 -5.1953833352	  C3      1    UNL1	 -0.007672
    551     C	 0.7928565635 -1.6463329999 -5.1953833352	  C3      1    UNL1	 -0.045060
    552     C	 3.2504360799  1.9606531600 -6.1798258287	  C3      1    UNL1	 -0.012894
    553     C	 2.2809494800  3.6398532084 -6.1798258287	  C3      1    UNL1	 -0.013391
    554     C	 0.3419762800  3.6398532084 -6.1798258287	  C3      1    UNL1	 -0.017185
    555     C	 0.3419762800  0.2814531116 -6.1798258287	  C3      1    UNL1	 -0.054173
    556     C	 2.2809494800  0.2814531116 -6.1798258287	  C3      1    UNL1	 -0.025104
    557     C	 1.3114628800  1.9606531600 -6.5217191187	  C3      1    UNL1	 -0.027591
    558     C	-0.3419762800  3.6398532084  4.4747443387	  C3      1    UNL1	 -0.016621
    559     C	-2.2809494800  3.6398532084  4.4747443387	  C3      1    UNL1	  0.002495
    560     C	-1.8300691965  5.5676393199  3.4903018452	  C3      1    UNL1	  0.000457
    561     C	-3.6978262220  4.7146632670  3.4903018452	  C3      1    UNL1	  0.010586
    562     C	-1.8246613100  6.8434100602  1.9820484418	  C3      1    UNL1	  0.001117
    563     C	-3.7662891251  6.2125369403  1.9820484418	  C3      1    UNL1	  0.006502
    564     C	-5.2834551811  4.8464744876  1.9820484418	  C3      1    UNL1	  0.014273
    565     C	-0.7963239404  7.5198876651  0.1319017485	  C3      1    UNL1	 -0.000296
    566     C	-4.8079297476  2.9873084640 -5.1953833352	  C3      1    UNL1	  0.010661
    567     C	-4.8079297476  0.9339978560 -5.1953833352	  C3      1    UNL1	  0.010803
    568     C	-0.3419762800  3.6398532084 -6.1798258287	  C3      1    UNL1	 -0.015722
    569     C	-2.2809494800  3.6398532084 -6.1798258287	  C3      1    UNL1	 -0.005596
    570     C	-3.2504360799  1.9606531600 -6.1798258287	  C3      1    UNL1	 -0.003288
    571     C	-2.2809494800  0.2814531116 -6.1798258287	  C3      1    UNL1	 -0.023230
    572     C	-0.3419762800  0.2814531116 -6.1798258287	  C3      1    UNL1	 -0.053764
    573     C	-1.3114628800  1.9606531600 -6.5217191187	  C3      1    UNL1	 -0.022715
    574     C	-1.3114628800 -1.9606531600  6.5217191187	  C3      1    UNL1	 -0.027591
    575     C	-0.3419762800 -0.2814531116  6.1798258287	  C3      1    UNL1	 -0.054173
    576     C	-2.2809494800 -0.2814531116  6.1798258287	  C3      1    UNL1	 -0.025104
    577     C	-3.2504360799 -1.9606531600  6.1798258287	  C3      1    UNL1	 -0.012894
    578     C	-2.2809494800 -3.6398532084  6.1798258287	  C3      1    UNL1	 -0.013391
    579     C	-0.3419762800 -3.6398532084  6.1798258287	  C3      1    UNL1	 -0.017185
    580     C	-4.8079297476 -0.9339978560  5.1953833352	  C3      1    UNL1	  0.001568
    581     C	-4.8079297476 -2.9873084640  5.1953833352	  C3      1    UNL1	 -0.003658
    582     C	-0.7963239404 -7.5198876651 -0.1319017485	  C3      1    UNL1	 -0.001826
    583     C	-5.2834551811 -4.8464744876 -1.9820484418	  C3      1    UNL1	 -0.001093
    584     C	-3.7662891251 -6.2125369403 -1.9820484418	  C3      1    UNL1	 -0.002868
    585     C	-1.8246613100 -6.8434100602 -1.9820484418	  C3      1    UNL1	 -0.003226
    586     C	-3.6978262220 -4.7146632670 -3.4903018452	  C3      1    UNL1	 -0.005280
    587     C	-1.8300691965 -5.5676393199 -3.4903018452	  C3      1    UNL1	 -0.006691
    588     C	-2.2809494800 -3.6398532084 -4.4747443387	  C3      1    UNL1	 -0.015133
    589     C	-0.3419762800 -3.6398532084 -4.4747443387	  C3      1    UNL1	 -0.020072
    590     C	 1.3114628800 -1.9606531600  6.5217191187	  C3      1    UNL1	 -0.022715
    591     C	 3.2504360799 -1.9606531600  6.1798258287	  C3      1    UNL1	 -0.003288
    592     C	 2.2809494800 -0.2814531116  6.1798258287	  C3      1    UNL1	 -0.023230
    593     C	 0.3419762800 -0.2814531116  6.1798258287	  C3      1    UNL1	 -0.053764
    594     C	 0.3419762800 -3.6398532084  6.1798258287	  C3      1    UNL1	 -0.015722
    595     C	 2.2809494800 -3.6398532084  6.1798258287	  C3      1    UNL1	 -0.005596
    596     C	 4.9555404957 -1.9606531600  5.1953833352	  C3      1    UNL1	  0.012413
    597     C	 0.7928565635  1.6463329999  5.1953833352	  C3      1    UNL1	 -0.054037
    598     C	 0.7928565635 -5.5676393199  5.1953833352	  C3      1    UNL1	 -0.005226
    599     C	 0.7982644500 -6.8434100602 -1.9820484418	  C3      1    UNL1	 -0.000907
    600     C	 2.8286289359 -6.6300101536 -1.9820484418	  C3      1    UNL1	  0.003559
    601     C	 4.5966616278 -5.6092360030 -1.9820484418	  C3      1    UNL1	  0.010046
    602     C	 0.7928565635 -5.5676393199 -3.4903018452	  C3      1    UNL1	 -0.003298
    603     C	 2.8252674301 -5.2754227528 -3.4903018452	  C3      1    UNL1	  0.004869
    604     C	 0.3419762800 -3.6398532084 -4.4747443387	  C3      1    UNL1	 -0.016621
    605     C	 2.2809494800 -3.6398532084 -4.4747443387	  C3      1    UNL1	  0.002495
