@<TRIPOS>MOLECULE
*****
 534 0 0 0 0
SMALL
GASTEIGER

@<TRIPOS>ATOM
       1     C	 1.9755139858 0.8430373514 1.8186533479	  C3      1    UNL1	  0.448477
       2     C	 0.9255139858 0.8430373514 1.8186533479	  C3      1    UNL1	  0.210108
       3     C	 3.5505139858 -0.0662893226 0.0000000000	  C3      1    UNL1	  0.806031
       4     C	 1.7036410143 -2.1509779582 0.0000000000	  C3      1    UNL1	  0.386757
       5     C	 2.6434499539 -1.7945554410 0.0000000000	  C3      1    UNL1	  0.600111
       6     C	 3.3099716396 -1.0422079839 0.0000000000	  C3      1    UNL1	  0.751423
       7     C	 1.9755139858 0.8430373514 -1.8186533479	  C3      1    UNL1	  0.448477
       8     C	 0.9255139858 0.8430373514 -1.8186533479	  C3      1    UNL1	  0.210108
       9     C	 2.0326669338 -2.2021610186 -0.3558529099	  C3      1    UNL1	  0.461452
      10     C	 2.9791828457 -1.6556898021 -0.3558529099	  C3      1    UNL1	  0.676328
      11     C	 3.3529911733 -0.6286598629 -1.3941500110	  C3      1    UNL1	  0.761189
      12     C	 2.9791828457 0.3983700764 -1.3941500110	  C3      1    UNL1	  0.676328
      13     C	 0.9563287522 -2.0123735568 -1.3941500110	  C3      1    UNL1	  0.217104
      14     C	 2.0326669338 -2.2021610186 -1.3941500110	  C3      1    UNL1	  0.461452
      15     C	 2.9791828457 -1.6556898021 -1.3941500110	  C3      1    UNL1	  0.676328
      16     C	 2.7426954498 -0.6286598629 -2.2341500110	  C3      1    UNL1	  0.622641
      17     C	 2.0603640877 0.3104886877 -2.2341500110	  C3      1    UNL1	  0.467740
      18     C	 0.9563287522 -0.0482341382 -2.2341500110	  C3      1    UNL1	  0.217104
      19     C	 0.9563287522 -1.2090855876 -2.2341500110	  C3      1    UNL1	  0.217104
      20     C	 2.0603640877 -1.5678084134 -2.2341500110	  C3      1    UNL1	  0.467740
      21     C	 1.7552162259 -0.6286598629 -2.5550014604	  C3      1    UNL1	  0.398466
      22     C	 1.7552162259 -0.6286598629 2.5550014604	  C3      1    UNL1	  0.398466
      23     C	 2.7426954498 -0.6286598629 2.2341500110	  C3      1    UNL1	  0.622641
      24     C	 2.0603640877 0.3104886877 2.2341500110	  C3      1    UNL1	  0.467740
      25     C	 0.9563287522 -0.0482341382 2.2341500110	  C3      1    UNL1	  0.217104
      26     C	 0.9563287522 -1.2090855876 2.2341500110	  C3      1    UNL1	  0.217104
      27     C	 2.0603640877 -1.5678084134 2.2341500110	  C3      1    UNL1	  0.467740
      28     C	 3.3529911733 -0.6286598629 1.3941500110	  C3      1    UNL1	  0.761189
      29     C	 2.9791828457 0.3983700764 1.3941500110	  C3      1    UNL1	  0.676328
      30     C	 0.9563287522 -2.0123735568 1.3941500110	  C3      1    UNL1	  0.217104
      31     C	 2.0326669338 -2.2021610186 1.3941500110	  C3      1    UNL1	  0.461452
      32     C	 2.9791828457 -1.6556898021 1.3941500110	  C3      1    UNL1	  0.676328
      33     C	 2.0326669338 -2.2021610186 0.3558529099	  C3      1    UNL1	  0.461452
      34     C	 2.9791828457 -1.6556898021 0.3558529099	  C3      1    UNL1	  0.676328
      35     C	 2.9092117598 0.9048589678 1.3591485505	  C3      1    UNL1	  0.660443
      36     C	 2.2268803977 1.8440075184 1.3591485505	  C3      1    UNL1	  0.505542
      37     C	 3.5195074834 0.9048589678 0.5191485505	  C3      1    UNL1	  0.798991
      38     C	 3.1456991558 1.9318889071 0.5191485505	  C3      1    UNL1	  0.714130
      39     C	 2.1991832439 2.4783601236 0.5191485505	  C3      1    UNL1	  0.499254
      40     C	 1.1228450623 2.2885726618 0.5191485505	  C3      1    UNL1	  0.254906
      41     C	 3.5195074834 0.9048589678 -0.5191485505	  C3      1    UNL1	  0.798991
      42     C	 3.1456991558 1.9318889071 -0.5191485505	  C3      1    UNL1	  0.714130
      43     C	 2.1991832439 2.4783601236 -0.5191485505	  C3      1    UNL1	  0.499254
      44     C	 1.1228450623 2.2885726618 -0.5191485505	  C3      1    UNL1	  0.254906
      45     C	 2.9092117598 0.9048589678 -1.3591485505	  C3      1    UNL1	  0.660443
      46     C	 2.2268803977 1.8440075184 -1.3591485505	  C3      1    UNL1	  0.505542
      47     C	 -0.0423311249 0.0984937775 2.1000000000	  C3      1    UNL1	 -0.010722
      48     C	 0.4826688751 1.0078204514 1.8186533479	  C3      1    UNL1	  0.109575
      49     C	 -1.0923311249 0.0984937775 1.8186533479	  C3      1    UNL1	 -0.276666
      50     C	 0.4826688751 1.0078204514 -1.8186533479	  C3      1    UNL1	  0.109575
      51     C	 -1.0923311249 0.0984937775 -1.8186533479	  C3      1    UNL1	 -0.276666
      52     C	 -0.0423311249 0.0984937775 -2.1000000000	  C3      1    UNL1	 -0.010722
      53     C	 -0.6706480752 -1.0762091531 1.9600000000	  C3      1    UNL1	 -0.169862
      54     C	 -1.6506480752 -1.0762091531 1.6974097914	  C3      1    UNL1	 -0.418076
      55     C	 -1.1606480752 -1.9249140488 1.6974097914	  C3      1    UNL1	 -0.293969
      56     C	 -0.1806480752 -1.9249140488 1.6974097914	  C3      1    UNL1	 -0.045755
      57     C	 -1.1951765472 -2.6905417960 0.9800000000	  C3      1    UNL1	 -0.302714
      58     C	 -0.1461196033 -2.6905417960 0.9800000000	  C3      1    UNL1	 -0.037009
      59     C	 0.7025852924 -2.0739215956 0.9800000000	  C3      1    UNL1	  0.159499
      60     C	 -1.6506480752 -2.7736189445 0.0000000000	  C3      1    UNL1	 -0.418076
      61     C	 -0.6706480752 -3.0362091531 0.0000000000	  C3      1    UNL1	 -0.169862
      62     C	 0.3093519248 -2.7736189445 0.0000000000	  C3      1    UNL1	  0.070228
      63     C	 -1.1951765472 -2.6905417960 -0.9800000000	  C3      1    UNL1	 -0.302714
      64     C	 -0.1461196033 -2.6905417960 -0.9800000000	  C3      1    UNL1	 -0.037009
      65     C	 0.7025852924 -2.0739215956 -0.9800000000	  C3      1    UNL1	  0.159499
      66     C	 -1.6506480752 -1.0762091531 -1.6974097914	  C3      1    UNL1	 -0.418076
      67     C	 -1.1606480752 -1.9249140488 -1.6974097914	  C3      1    UNL1	 -0.293969
      68     C	 -0.1806480752 -1.9249140488 -1.6974097914	  C3      1    UNL1	 -0.045755
      69     C	 -0.6706480752 -1.0762091531 -1.9600000000	  C3      1    UNL1	 -0.169862
      70     C	 -2.4072599694 -0.3297402883 1.3591485505	  C3      1    UNL1	 -0.609711
      71     C	 -2.4072599694 -1.4905917377 1.3591485505	  C3      1    UNL1	 -0.609711
      72     C	 -2.4072599694 0.4735476809 0.5191485505	  C3      1    UNL1	 -0.609711
      73     C	 -3.1097898234 -0.3636947965 0.5191485505	  C3      1    UNL1	 -0.787648
      74     C	 -3.1097898234 -1.4566372295 0.5191485505	  C3      1    UNL1	 -0.787648
      75     C	 -2.4072599694 -2.2938797070 0.5191485505	  C3      1    UNL1	 -0.609711
      76     C	 -2.4072599694 0.4735476809 -0.5191485505	  C3      1    UNL1	 -0.609711
      77     C	 -3.1097898234 -0.3636947965 -0.5191485505	  C3      1    UNL1	 -0.787648
      78     C	 -3.1097898234 -1.4566372295 -0.5191485505	  C3      1    UNL1	 -0.787648
      79     C	 -2.4072599694 -2.2938797070 -0.5191485505	  C3      1    UNL1	 -0.609711
      80     C	 -2.4072599694 -0.3297402883 -1.3591485505	  C3      1    UNL1	 -0.609711
      81     C	 -2.4072599694 -1.4905917377 -1.3591485505	  C3      1    UNL1	 -0.609711
      82     C	 -0.6267585452 1.1316050979 1.9600000000	  C3      1    UNL1	 -0.158746
      83     C	 -0.1367585452 1.9803099937 1.6974097914	  C3      1    UNL1	 -0.034638
      84     C	 -1.1167585452 1.9803099937 1.6974097914	  C3      1    UNL1	 -0.282853
      85     C	 -1.6067585452 1.1316050979 1.6974097914	  C3      1    UNL1	 -0.406960
      86     C	 0.7464748225 2.1293175404 0.9800000000	  C3      1    UNL1	  0.169463
      87     C	 -0.1022300733 2.7459377409 0.9800000000	  C3      1    UNL1	 -0.025893
      88     C	 -1.1512870172 2.7459377409 0.9800000000	  C3      1    UNL1	 -0.291598
      89     C	 -1.9999919129 2.1293175404 0.9800000000	  C3      1    UNL1	 -0.506558
      90     C	 -2.3241683366 1.1316050979 0.9800000000	  C3      1    UNL1	 -0.588665
      91     C	 0.3532414548 2.8290148894 0.0000000000	  C3      1    UNL1	  0.080192
      92     C	 -0.6267585452 3.0916050979 0.0000000000	  C3      1    UNL1	 -0.158746
      93     C	 -1.6067585452 2.8290148894 0.0000000000	  C3      1    UNL1	 -0.406960
      94     C	 -2.3241683366 2.1116050979 0.0000000000	  C3      1    UNL1	 -0.588665
      95     C	 -2.5867585452 1.1316050979 0.0000000000	  C3      1    UNL1	 -0.655174
      96     C	 0.7464748225 2.1293175404 -0.9800000000	  C3      1    UNL1	  0.169463
      97     C	 -0.1022300733 2.7459377409 -0.9800000000	  C3      1    UNL1	 -0.025893
      98     C	 -1.1512870172 2.7459377409 -0.9800000000	  C3      1    UNL1	 -0.291598
      99     C	 -1.9999919129 2.1293175404 -0.9800000000	  C3      1    UNL1	 -0.506558
     100     C	 -2.3241683366 1.1316050979 -0.9800000000	  C3      1    UNL1	 -0.588665
     101     C	 -0.1367585452 1.9803099937 -1.6974097914	  C3      1    UNL1	 -0.034638
     102     C	 -1.1167585452 1.9803099937 -1.6974097914	  C3      1    UNL1	 -0.282853
     103     C	 -1.6067585452 1.1316050979 -1.6974097914	  C3      1    UNL1	 -0.406960
     104     C	 -0.6267585452 1.1316050979 -1.9600000000	  C3      1    UNL1	 -0.158746
     105     C	 1.9711744727 0.8355210943 2.1623252830	  C3      1    UNL1	  0.447492
     106     C	 0.9298534988 0.8355210943 2.1623252830	  C3      1    UNL1	  0.211093
     107     C	 3.7903409750 -0.0662893226 0.5340502415	  C3      1    UNL1	  0.860476
     108     C	 3.7903409750 -0.0662893226 -0.5340502415	  C3      1    UNL1	  0.860476
     109     C	 1.9711744727 0.8355210943 -2.1623252830	  C3      1    UNL1	  0.447492
     110     C	 0.9298534988 0.8355210943 -2.1623252830	  C3      1    UNL1	  0.211093
     111     C	 3.6752162259 -0.6286598629 -0.8750014604	  C3      1    UNL1	  0.834340
     112     C	 1.7552162259 -2.5486598629 -0.8750014604	  C3      1    UNL1	  0.398466
     113     C	 2.7152162259 -2.2914286382 -0.8750014604	  C3      1    UNL1	  0.616403
     114     C	 3.4179850012 -1.5886598629 -0.8750014604	  C3      1    UNL1	  0.775944
     115     C	 3.4179850012 -0.6286598629 -1.8350014604	  C3      1    UNL1	  0.775944
     116     C	 3.1004244228 0.3486911012 -1.8350014604	  C3      1    UNL1	  0.703852
     117     C	 1.2413924166 -2.2100469417 -1.8350014604	  C3      1    UNL1	  0.281818
     118     C	 2.2690400352 -2.2100469417 -1.8350014604	  C3      1    UNL1	  0.515113
     119     C	 3.1004244228 -1.6060108270 -1.8350014604	  C3      1    UNL1	  0.703852
     120     C	 2.7152162259 -0.6286598629 -2.5377702357	  C3      1    UNL1	  0.616403
     121     C	 2.2352162259 0.2027245247 -2.5377702357	  C3      1    UNL1	  0.507434
     122     C	 1.2752162259 0.2027245247 -2.5377702357	  C3      1    UNL1	  0.289497
     123     C	 0.7952162259 -0.6286598629 -2.5377702357	  C3      1    UNL1	  0.180528
     124     C	 1.2752162259 -1.4600442505 -2.5377702357	  C3      1    UNL1	  0.289497
     125     C	 2.2352162259 -1.4600442505 -2.5377702357	  C3      1    UNL1	  0.507434
     126     C	 1.7552162259 -0.6286598629 -2.7950014604	  C3      1    UNL1	  0.398466
     127     C	 1.7552162259 -0.6286598629 2.7950014604	  C3      1    UNL1	  0.398466
     128     C	 2.7152162259 -0.6286598629 2.5377702357	  C3      1    UNL1	  0.616403
     129     C	 2.2352162259 0.2027245247 2.5377702357	  C3      1    UNL1	  0.507434
     130     C	 1.2752162259 0.2027245247 2.5377702357	  C3      1    UNL1	  0.289497
     131     C	 0.7952162259 -0.6286598629 2.5377702357	  C3      1    UNL1	  0.180528
     132     C	 1.2752162259 -1.4600442505 2.5377702357	  C3      1    UNL1	  0.289497
     133     C	 2.2352162259 -1.4600442505 2.5377702357	  C3      1    UNL1	  0.507434
     134     C	 3.4179850012 -0.6286598629 1.8350014604	  C3      1    UNL1	  0.775944
     135     C	 3.1004244228 0.3486911012 1.8350014604	  C3      1    UNL1	  0.703852
     136     C	 1.2413924166 -2.2100469417 1.8350014604	  C3      1    UNL1	  0.281818
     137     C	 2.2690400352 -2.2100469417 1.8350014604	  C3      1    UNL1	  0.515113
     138     C	 3.1004244228 -1.6060108270 1.8350014604	  C3      1    UNL1	  0.703852
     139     C	 3.6752162259 -0.6286598629 0.8750014604	  C3      1    UNL1	  0.834340
     140     C	 1.7552162259 -2.5486598629 0.8750014604	  C3      1    UNL1	  0.398466
     141     C	 2.7152162259 -2.2914286382 0.8750014604	  C3      1    UNL1	  0.616403
     142     C	 3.4179850012 -1.5886598629 0.8750014604	  C3      1    UNL1	  0.775944
     143     C	 2.4017325360 1.7362433555 1.6627687753	  C3      1    UNL1	  0.545237
     144     C	 1.4417325360 1.7362433555 1.6627687753	  C3      1    UNL1	  0.327299
     145     C	 3.5845013112 0.9048589678 0.9600000000	  C3      1    UNL1	  0.813746
     146     C	 3.2669407329 1.8822099319 0.9600000000	  C3      1    UNL1	  0.741654
     147     C	 2.4355563453 2.4862460466 0.9600000000	  C3      1    UNL1	  0.552915
     148     C	 1.4079087267 2.4862460466 0.9600000000	  C3      1    UNL1	  0.319621
     149     C	 3.8417325360 0.9048589678 0.0000000000	  C3      1    UNL1	  0.872143
     150     C	 3.5845013112 1.8648589678 0.0000000000	  C3      1    UNL1	  0.813746
     151     C	 2.8817325360 2.5676277431 0.0000000000	  C3      1    UNL1	  0.654205
     152     C	 1.9217325360 2.8248589678 0.0000000000	  C3      1    UNL1	  0.436268
     153     C	 3.5845013112 0.9048589678 -0.9600000000	  C3      1    UNL1	  0.813746
     154     C	 3.2669407329 1.8822099319 -0.9600000000	  C3      1    UNL1	  0.741654
     155     C	 2.4355563453 2.4862460466 -0.9600000000	  C3      1    UNL1	  0.552915
     156     C	 1.4079087267 2.4862460466 -0.9600000000	  C3      1    UNL1	  0.319621
     157     C	 2.4017325360 1.7362433555 -1.6627687753	  C3      1    UNL1	  0.545237
     158     C	 1.4417325360 1.7362433555 -1.6627687753	  C3      1    UNL1	  0.327299
     159     C	 -0.0423311249 0.0984937775 2.4000000000	  C3      1    UNL1	 -0.010722
     160     C	 0.4783293620 1.0003041943 2.1623252830	  C3      1    UNL1	  0.108589
     161     C	 -1.0836520988 0.0984937775 2.1623252830	  C3      1    UNL1	 -0.274467
     162     C	 0.4783293620 1.0003041943 -2.1623252830	  C3      1    UNL1	  0.108589
     163     C	 -1.0836520988 0.0984937775 -2.1623252830	  C3      1    UNL1	 -0.274467
     164     C	 -0.0423311249 0.0984937775 -2.4000000000	  C3      1    UNL1	 -0.010722
     165     C	 -0.6706480752 -1.0762091531 2.2400000000	  C3      1    UNL1	 -0.169862
     166     C	 -1.6425476509 -1.0762091531 2.0181702641	  C3      1    UNL1	 -0.416025
     167     C	 -1.1565978631 -1.9178988755 2.0181702641	  C3      1    UNL1	 -0.292943
     168     C	 -0.1846982874 -1.9178988755 2.0181702641	  C3      1    UNL1	 -0.046780
     169     C	 -1.2118303164 -2.7417968274 1.3966171562	  C3      1    UNL1	 -0.306932
     170     C	 -0.1294658340 -2.7417968274 1.3966171562	  C3      1    UNL1	 -0.032791
     171     C	 -1.4450478881 -3.1181336438 0.4984468921	  C3      1    UNL1	 -0.366002
     172     C	 -0.4074154294 -3.2441250348 0.4984468921	  C3      1    UNL1	 -0.103190
     173     C	 0.5699136024 -2.8734730235 0.4984468921	  C3      1    UNL1	  0.129381
     174     C	 -1.4450478881 -3.1181336438 -0.4984468921	  C3      1    UNL1	 -0.366002
     175     C	 -0.4074154294 -3.2441250348 -0.4984468921	  C3      1    UNL1	 -0.103190
     176     C	 0.5699136024 -2.8734730235 -0.4984468921	  C3      1    UNL1	  0.129381
     177     C	 -1.2118303164 -2.7417968274 -1.3966171562	  C3      1    UNL1	 -0.306932
     178     C	 -0.1294658340 -2.7417968274 -1.3966171562	  C3      1    UNL1	 -0.032791
     179     C	 -1.6425476509 -1.0762091531 -2.0181702641	  C3      1    UNL1	 -0.416025
     180     C	 -1.1565978631 -1.9178988755 -2.0181702641	  C3      1    UNL1	 -0.292943
     181     C	 -0.1846982874 -1.9178988755 -2.0181702641	  C3      1    UNL1	 -0.046780
     182     C	 -0.6706480752 -1.0762091531 -2.2400000000	  C3      1    UNL1	 -0.169862
     183     C	 -2.0883724957 -0.0787816254 1.6627687753	  C3      1    UNL1	 -0.528943
     184     C	 -2.5683724957 -0.9101660130 1.6627687753	  C3      1    UNL1	 -0.650517
     185     C	 -2.0883724957 -1.7415504007 1.6627687753	  C3      1    UNL1	 -0.528943
     186     C	 -2.9535806926 0.0671849511 0.9600000000	  C3      1    UNL1	 -0.748083
     187     C	 -3.2711412710 -0.9101660130 0.9600000000	  C3      1    UNL1	 -0.828515
     188     C	 -2.9535806926 -1.8875169771 0.9600000000	  C3      1    UNL1	 -0.748083
     189     C	 -2.1221963050 -2.4915530918 0.9600000000	  C3      1    UNL1	 -0.537510
     190     C	 -3.2711412710 0.0498339870 0.0000000000	  C3      1    UNL1	 -0.828515
     191     C	 -3.5283724957 -0.9101660130 0.0000000000	  C3      1    UNL1	 -0.893666
     192     C	 -3.2711412710 -1.8701660130 0.0000000000	  C3      1    UNL1	 -0.828515
     193     C	 -2.5683724957 -2.5729347883 0.0000000000	  C3      1    UNL1	 -0.650517
     194     C	 -2.9535806926 0.0671849511 -0.9600000000	  C3      1    UNL1	 -0.748083
     195     C	 -3.2711412710 -0.9101660130 -0.9600000000	  C3      1    UNL1	 -0.828515
     196     C	 -2.9535806926 -1.8875169771 -0.9600000000	  C3      1    UNL1	 -0.748083
     197     C	 -2.1221963050 -2.4915530918 -0.9600000000	  C3      1    UNL1	 -0.537510
     198     C	 -2.0883724957 -0.0787816254 -1.6627687753	  C3      1    UNL1	 -0.528943
     199     C	 -2.5683724957 -0.9101660130 -1.6627687753	  C3      1    UNL1	 -0.650517
     200     C	 -2.0883724957 -1.7415504007 -1.6627687753	  C3      1    UNL1	 -0.528943
     201     C	 -0.6267585452 1.1316050979 2.2400000000	  C3      1    UNL1	 -0.158746
     202     C	 -0.1408087574 1.9732948204 2.0181702641	  C3      1    UNL1	 -0.035664
     203     C	 -1.1127083330 1.9732948204 2.0181702641	  C3      1    UNL1	 -0.281827
     204     C	 -1.5986581208 1.1316050979 2.0181702641	  C3      1    UNL1	 -0.404908
     205     C	 0.7900749563 2.1609948919 1.3966171562	  C3      1    UNL1	  0.179361
     206     C	 -0.0855763040 2.7971927723 1.3966171562	  C3      1    UNL1	 -0.021675
     207     C	 -1.1679407864 2.7971927723 1.3966171562	  C3      1    UNL1	 -0.295816
     208     C	 -2.0435920468 2.1609948919 1.3966171562	  C3      1    UNL1	 -0.517601
     209     C	 -2.3780610660 1.1316050979 1.3966171562	  C3      1    UNL1	 -0.602315
     210     C	 0.6138031324 2.9288689683 0.4984468921	  C3      1    UNL1	  0.139344
     211     C	 -0.3635258994 3.2995209796 0.4984468921	  C3      1    UNL1	 -0.092074
     212     C	 -1.4011583581 3.1735295886 0.4984468921	  C3      1    UNL1	 -0.354885
     213     C	 -2.2613851522 2.5797579047 0.4984468921	  C3      1    UNL1	 -0.572764
     214     C	 -2.7471386900 1.6542318648 0.4984468921	  C3      1    UNL1	 -0.695795
     215     C	 -2.7471386900 0.6089783310 0.4984468921	  C3      1    UNL1	 -0.695795
     216     C	 0.6138031324 2.9288689683 -0.4984468921	  C3      1    UNL1	  0.139344
     217     C	 -0.3635258994 3.2995209796 -0.4984468921	  C3      1    UNL1	 -0.092074
     218     C	 -1.4011583581 3.1735295886 -0.4984468921	  C3      1    UNL1	 -0.354885
     219     C	 -2.2613851522 2.5797579047 -0.4984468921	  C3      1    UNL1	 -0.572764
     220     C	 -2.7471386900 1.6542318648 -0.4984468921	  C3      1    UNL1	 -0.695795
     221     C	 -2.7471386900 0.6089783310 -0.4984468921	  C3      1    UNL1	 -0.695795
     222     C	 0.7900749563 2.1609948919 -1.3966171562	  C3      1    UNL1	  0.179361
     223     C	 -0.0855763040 2.7971927723 -1.3966171562	  C3      1    UNL1	 -0.021675
     224     C	 -1.1679407864 2.7971927723 -1.3966171562	  C3      1    UNL1	 -0.295816
     225     C	 -2.0435920468 2.1609948919 -1.3966171562	  C3      1    UNL1	 -0.517601
     226     C	 -2.3780610660 1.1316050979 -1.3966171562	  C3      1    UNL1	 -0.602315
     227     C	 -0.1408087574 1.9732948204 -2.0181702641	  C3      1    UNL1	 -0.035664
     228     C	 -1.1127083330 1.9732948204 -2.0181702641	  C3      1    UNL1	 -0.281827
     229     C	 -1.5986581208 1.1316050979 -2.0181702641	  C3      1    UNL1	 -0.404908
     230     C	 -0.6267585452 1.1316050979 -2.2400000000	  C3      1    UNL1	 -0.158746
     231     C	 1.9671366194 0.8285273273 2.4944747378	  C3      1    UNL1	  0.446576
     232     C	 0.9338913521 0.8285273273 2.4944747378	  C3      1    UNL1	  0.212010
     233     C	 3.0566253957 0.9658958055 1.9091883092	  C3      1    UNL1	  0.693909
     234     C	 1.1788081603 1.8234662024 1.9091883092	  C3      1    UNL1	  0.267611
     235     C	 3.9449887235 -0.0662893226 1.0332452674	  C3      1    UNL1	  0.895584
     236     C	 4.1505139858 -0.0662893226 0.0000000000	  C3      1    UNL1	  0.942241
     237     C	 1.4505139858 -2.7662893226 0.0000000000	  C3      1    UNL1	  0.329293
     238     C	 2.4837592531 -2.5607640604 0.0000000000	  C3      1    UNL1	  0.563858
     239     C	 3.3597022950 -1.9754776318 0.0000000000	  C3      1    UNL1	  0.762713
     240     C	 3.9449887235 -1.0995345900 0.0000000000	  C3      1    UNL1	  0.895584
     241     C	 3.9449887235 -0.0662893226 -1.0332452674	  C3      1    UNL1	  0.895584
     242     C	 3.0566253957 0.9658958055 -1.9091883092	  C3      1    UNL1	  0.693909
     243     C	 1.1788081603 1.8234662024 -1.9091883092	  C3      1    UNL1	  0.267611
     244     C	 1.9671366194 0.8285273273 -2.4944747378	  C3      1    UNL1	  0.446576
     245     C	 0.9338913521 0.8285273273 -2.4944747378	  C3      1    UNL1	  0.212010
     246     C	 2.0155754553 -2.7729110309 -0.8750014604	  C3      1    UNL1	  0.457572
     247     C	 2.9822360788 -2.4063050132 -0.8750014604	  C3      1    UNL1	  0.677021
     248     C	 3.6678012413 -1.6324619145 -0.8750014604	  C3      1    UNL1	  0.832657
     249     C	 3.6258310981 -0.6286598629 -1.9550014604	  C3      1    UNL1	  0.823129
     250     C	 3.3288775957 0.3826708908 -1.9550014604	  C3      1    UNL1	  0.755715
     251     C	 1.4889999729 -2.4802345729 -1.9550014604	  C3      1    UNL1	  0.338030
     252     C	 2.5322977273 -2.3302310016 -1.9550014604	  C3      1    UNL1	  0.574877
     253     C	 3.3288775957 -1.6399906165 -1.9550014604	  C3      1    UNL1	  0.755715
     254     C	 2.8352162259 -0.6286598629 -2.7456163326	  C3      1    UNL1	  0.643645
     255     C	 2.2952162259 0.3066475732 -2.7456163326	  C3      1    UNL1	  0.521055
     256     C	 1.2152162259 0.3066475732 -2.7456163326	  C3      1    UNL1	  0.275876
     257     C	 0.6752162259 -0.6286598629 -2.7456163326	  C3      1    UNL1	  0.153286
     258     C	 1.2152162259 -1.5639672990 -2.7456163326	  C3      1    UNL1	  0.275876
     259     C	 2.2952162259 -1.5639672990 -2.7456163326	  C3      1    UNL1	  0.521055
     260     C	 1.7552162259 -0.6286598629 -3.0350014604	  C3      1    UNL1	  0.398466
     261     C	 1.7552162259 -0.6286598629 3.0350014604	  C3      1    UNL1	  0.398466
     262     C	 2.8352162259 -0.6286598629 2.7456163326	  C3      1    UNL1	  0.643645
     263     C	 2.2952162259 0.3066475732 2.7456163326	  C3      1    UNL1	  0.521055
     264     C	 1.2152162259 0.3066475732 2.7456163326	  C3      1    UNL1	  0.275876
     265     C	 0.6752162259 -0.6286598629 2.7456163326	  C3      1    UNL1	  0.153286
     266     C	 1.2152162259 -1.5639672990 2.7456163326	  C3      1    UNL1	  0.275876
     267     C	 2.2952162259 -1.5639672990 2.7456163326	  C3      1    UNL1	  0.521055
     268     C	 3.6258310981 -0.6286598629 1.9550014604	  C3      1    UNL1	  0.823129
     269     C	 3.3288775957 0.3826708908 1.9550014604	  C3      1    UNL1	  0.755715
     270     C	 1.4889999729 -2.4802345729 1.9550014604	  C3      1    UNL1	  0.338030
     271     C	 2.5322977273 -2.3302310016 1.9550014604	  C3      1    UNL1	  0.574877
     272     C	 3.3288775957 -1.6399906165 1.9550014604	  C3      1    UNL1	  0.755715
     273     C	 2.0155754553 -2.7729110309 0.8750014604	  C3      1    UNL1	  0.457572
     274     C	 2.9822360788 -2.4063050132 0.8750014604	  C3      1    UNL1	  0.677021
     275     C	 3.6678012413 -1.6324619145 0.8750014604	  C3      1    UNL1	  0.832657
     276     C	 2.4617325360 1.8401664039 1.8706148722	  C3      1    UNL1	  0.558858
     277     C	 3.7923474082 0.9048589678 1.0800000000	  C3      1    UNL1	  0.860931
     278     C	 3.4953939058 1.9161897215 1.0800000000	  C3      1    UNL1	  0.793517
     279     C	 2.6988140374 2.6064301066 1.0800000000	  C3      1    UNL1	  0.612679
     280     C	 1.6555162830 2.7564336778 1.0800000000	  C3      1    UNL1	  0.375832
     281     C	 4.0817325360 0.9048589678 0.0000000000	  C3      1    UNL1	  0.926627
     282     C	 3.8343175514 1.9086610195 0.0000000000	  C3      1    UNL1	  0.870459
     283     C	 3.1487523889 2.6825041182 0.0000000000	  C3      1    UNL1	  0.714823
     284     C	 2.1820917653 3.0491101359 0.0000000000	  C3      1    UNL1	  0.495374
     285     C	 1.1557859800 2.9244940520 0.0000000000	  C3      1    UNL1	  0.262384
     286     C	 3.7923474082 0.9048589678 -1.0800000000	  C3      1    UNL1	  0.860931
     287     C	 3.4953939058 1.9161897215 -1.0800000000	  C3      1    UNL1	  0.793517
     288     C	 2.6988140374 2.6064301066 -1.0800000000	  C3      1    UNL1	  0.612679
     289     C	 1.6555162830 2.7564336778 -1.0800000000	  C3      1    UNL1	  0.375832
     290     C	 2.4617325360 1.8401664039 -1.8706148722	  C3      1    UNL1	  0.558858
     291     C	 -0.0423311249 0.0984937775 2.7000000000	  C3      1    UNL1	 -0.010722
     292     C	 0.4742915087 0.9933104274 2.4944747378	  C3      1    UNL1	  0.107673
     293     C	 -1.0755763923 0.0984937775 2.4944747378	  C3      1    UNL1	 -0.272422
     294     C	 0.4742915087 0.9933104274 -2.4944747378	  C3      1    UNL1	  0.107673
     295     C	 -1.0755763923 0.0984937775 -2.4944747378	  C3      1    UNL1	 -0.272422
     296     C	 -0.0423311249 0.0984937775 -2.7000000000	  C3      1    UNL1	 -0.010722
     297     C	 -0.6706480752 -1.0762091531 2.5200000000	  C3      1    UNL1	 -0.169862
     298     C	 -1.7640350978 -1.0762091531 2.2704415471	  C3      1    UNL1	 -0.446795
     299     C	 -1.2173415865 -2.0231100908 2.2704415471	  C3      1    UNL1	 -0.308328
     300     C	 -0.1239545640 -2.0231100908 2.2704415471	  C3      1    UNL1	 -0.031395
     301     C	 -1.9608647361 -2.5651985545 1.5711943007	  C3      1    UNL1	 -0.496648
     302     C	 -0.9510389521 -3.0263705376 1.5711943007	  C3      1    UNL1	 -0.240879
     303     C	 0.1478089541 -2.8683800603 1.5711943007	  C3      1    UNL1	  0.033555
     304     C	 -2.2024492544 -2.9970270770 0.5607527536	  C3      1    UNL1	 -0.557836
     305     C	 -1.2173415865 -3.4714299267 0.5607527536	  C3      1    UNL1	 -0.308328
     306     C	 -0.1239545640 -3.4714299267 0.5607527536	  C3      1    UNL1	 -0.031395
     307     C	 0.8611531040 -2.9970270770 0.5607527536	  C3      1    UNL1	  0.195497
     308     C	 -2.2024492544 -2.9970270770 -0.5607527536	  C3      1    UNL1	 -0.557836
     309     C	 -1.2173415865 -3.4714299267 -0.5607527536	  C3      1    UNL1	 -0.308328
     310     C	 -0.1239545640 -3.4714299267 -0.5607527536	  C3      1    UNL1	 -0.031395
     311     C	 0.8611531040 -2.9970270770 -0.5607527536	  C3      1    UNL1	  0.195497
     312     C	 -1.9608647361 -2.5651985545 -1.5711943007	  C3      1    UNL1	 -0.496648
     313     C	 -0.9510389521 -3.0263705376 -1.5711943007	  C3      1    UNL1	 -0.240879
     314     C	 0.1478089541 -2.8683800603 -1.5711943007	  C3      1    UNL1	  0.033555
     315     C	 -1.7640350978 -1.0762091531 -2.2704415471	  C3      1    UNL1	 -0.446795
     316     C	 -1.2173415865 -2.0231100908 -2.2704415471	  C3      1    UNL1	 -0.308328
     317     C	 -0.1239545640 -2.0231100908 -2.2704415471	  C3      1    UNL1	 -0.031395
     318     C	 -0.6706480752 -1.0762091531 -2.5200000000	  C3      1    UNL1	 -0.169862
     319     C	 -2.1483724957 0.0251414231 1.8706148722	  C3      1    UNL1	 -0.544140
     320     C	 -2.6883724957 -0.9101660130 1.8706148722	  C3      1    UNL1	 -0.680911
     321     C	 -2.8333647238 0.5035503804 1.0800000000	  C3      1    UNL1	 -0.717635
     322     C	 -3.4032143219 -0.3831529022 1.0800000000	  C3      1    UNL1	 -0.861966
     323     C	 -3.4032143219 -1.4371791238 1.0800000000	  C3      1    UNL1	 -0.861966
     324     C	 -2.8333647238 -2.3238824064 1.0800000000	  C3      1    UNL1	 -0.717635
     325     C	 -3.2251557117 0.5221789288 0.0000000000	  C3      1    UNL1	 -0.816868
     326     C	 -3.7056068213 -0.3932441782 0.0000000000	  C3      1    UNL1	 -0.938556
     327     C	 -3.7056068213 -1.4270878479 0.0000000000	  C3      1    UNL1	 -0.938556
     328     C	 -3.2251557117 -2.3425109548 0.0000000000	  C3      1    UNL1	 -0.816868
     329     C	 -2.8333647238 0.5035503804 -1.0800000000	  C3      1    UNL1	 -0.717635
     330     C	 -3.4032143219 -0.3831529022 -1.0800000000	  C3      1    UNL1	 -0.861966
     331     C	 -3.4032143219 -1.4371791238 -1.0800000000	  C3      1    UNL1	 -0.861966
     332     C	 -2.8333647238 -2.3238824064 -1.0800000000	  C3      1    UNL1	 -0.717635
     333     C	 -2.1483724957 0.0251414231 -1.8706148722	  C3      1    UNL1	 -0.544140
     334     C	 -2.6883724957 -0.9101660130 -1.8706148722	  C3      1    UNL1	 -0.680911
     335     C	 -0.6267585452 1.1316050979 2.5200000000	  C3      1    UNL1	 -0.158746
     336     C	 -0.0800650339 2.0785060357 2.2704415471	  C3      1    UNL1	 -0.020279
     337     C	 -1.1734520565 2.0785060357 2.2704415471	  C3      1    UNL1	 -0.297212
     338     C	 -1.7201455678 1.1316050979 2.2704415471	  C3      1    UNL1	 -0.435679
     339     C	 1.0306920665 2.1967839277 1.5711943007	  C3      1    UNL1	  0.233986
     340     C	 0.1916984841 2.9237760051 1.5711943007	  C3      1    UNL1	  0.043519
     341     C	 -0.9071494221 3.0817664825 1.5711943007	  C3      1    UNL1	 -0.229763
     342     C	 -1.9169752061 2.6205944994 1.5711943007	  C3      1    UNL1	 -0.485532
     343     C	 -2.5171663165 1.6866789020 1.5711943007	  C3      1    UNL1	 -0.637548
     344     C	 -2.5171663165 0.5765312939 1.5711943007	  C3      1    UNL1	 -0.637548
     345     C	 0.9050426340 3.0524230218 0.5607527536	  C3      1    UNL1	  0.205461
     346     C	 -0.0800650339 3.5268258715 0.5607527536	  C3      1    UNL1	 -0.020279
     347     C	 -1.1734520565 3.5268258715 0.5607527536	  C3      1    UNL1	 -0.297212
     348     C	 -2.1585597244 3.0524230218 0.5607527536	  C3      1    UNL1	 -0.546720
     349     C	 -2.8402753825 2.1975786251 0.5607527536	  C3      1    UNL1	 -0.719385
     350     C	 -3.0835768839 1.1316050979 0.5607527536	  C3      1    UNL1	 -0.781009
     351     C	 0.9050426340 3.0524230218 -0.5607527536	  C3      1    UNL1	  0.205461
     352     C	 -0.0800650339 3.5268258715 -0.5607527536	  C3      1    UNL1	 -0.020279
     353     C	 -1.1734520565 3.5268258715 -0.5607527536	  C3      1    UNL1	 -0.297212
     354     C	 -2.1585597244 3.0524230218 -0.5607527536	  C3      1    UNL1	 -0.546720
     355     C	 -2.8402753825 2.1975786251 -0.5607527536	  C3      1    UNL1	 -0.719385
     356     C	 -3.0835768839 1.1316050979 -0.5607527536	  C3      1    UNL1	 -0.781009
     357     C	 1.0306920665 2.1967839277 -1.5711943007	  C3      1    UNL1	  0.233986
     358     C	 0.1916984841 2.9237760051 -1.5711943007	  C3      1    UNL1	  0.043519
     359     C	 -0.9071494221 3.0817664825 -1.5711943007	  C3      1    UNL1	 -0.229763
     360     C	 -1.9169752061 2.6205944994 -1.5711943007	  C3      1    UNL1	 -0.485532
     361     C	 -2.5171663165 1.6866789020 -1.5711943007	  C3      1    UNL1	 -0.637548
     362     C	 -2.5171663165 0.5765312939 -1.5711943007	  C3      1    UNL1	 -0.637548
     363     C	 -0.0800650339 2.0785060357 -2.2704415471	  C3      1    UNL1	 -0.020279
     364     C	 -1.1734520565 2.0785060357 -2.2704415471	  C3      1    UNL1	 -0.297212
     365     C	 -1.7201455678 1.1316050979 -2.2704415471	  C3      1    UNL1	 -0.435679
     366     C	 -0.6267585452 1.1316050979 -2.5200000000	  C3      1    UNL1	 -0.158746
     367     C	 1.9635442007 0.8223050756 2.8190778624	  C3      1    UNL1	  0.445760
     368     C	 0.9374837708 0.8223050756 2.8190778624	  C3      1    UNL1	  0.212826
     369     C	 3.0727560283 0.9762623336 2.2981333294	  C3      1    UNL1	  0.697571
     370     C	 2.2515848555 1.6878112053 2.2981333294	  C3      1    UNL1	  0.511150
     371     C	 1.1760793416 1.8424455533 2.2981333294	  C3      1    UNL1	  0.266991
     372     C	 4.0485901971 -0.0662893226 1.5000000000	  C3      1    UNL1	  0.919103
     373     C	 3.8239747072 0.9904434740 1.5000000000	  C3      1    UNL1	  0.868111
     374     C	 4.4049372448 -0.0662893226 0.5209445330	  C3      1    UNL1	  1.000000
     375     C	 1.7231137730 -3.0081095329 0.5209445330	  C3      1    UNL1	  0.391178
     376     C	 4.2054316287 -1.1335501033 0.5209445330	  C3      1    UNL1	  0.954709
     377     C	 4.4049372448 -0.0662893226 -0.5209445330	  C3      1    UNL1	  1.000000
     378     C	 1.7231137730 -3.0081095329 -0.5209445330	  C3      1    UNL1	  0.391178
     379     C	 4.2054316287 -1.1335501033 -0.5209445330	  C3      1    UNL1	  0.954709
     380     C	 4.0485901971 -0.0662893226 -1.5000000000	  C3      1    UNL1	  0.919103
     381     C	 3.8239747072 0.9904434740 -1.5000000000	  C3      1    UNL1	  0.868111
     382     C	 3.0727560283 0.9762623336 -2.2981333294	  C3      1    UNL1	  0.697571
     383     C	 2.2515848555 1.6878112053 -2.2981333294	  C3      1    UNL1	  0.511150
     384     C	 1.1760793416 1.8424455533 -2.2981333294	  C3      1    UNL1	  0.266991
     385     C	 1.9635442007 0.8223050756 -2.8190778624	  C3      1    UNL1	  0.445760
     386     C	 0.9374837708 0.8223050756 -2.8190778624	  C3      1    UNL1	  0.212826
     387     C	 4.0950432151 -0.6286598629 -1.4090517019	  C3      1    UNL1	  0.929648
     388     C	 1.2345557390 -2.9098225044 -1.4090517019	  C3      1    UNL1	  0.280266
     389     C	 2.2758767128 -2.9098225044 -1.4090517019	  C3      1    UNL1	  0.516665
     390     C	 3.2140744918 -2.4580102666 -1.4090517019	  C3      1    UNL1	  0.729653
     391     C	 3.8633274995 -1.6438727459 -1.4090517019	  C3      1    UNL1	  0.877045
     392     C	 3.6316117838 -0.6286598629 -2.3713769849	  C3      1    UNL1	  0.824441
     393     C	 3.3337406180 0.3857961654 -2.3713769849	  C3      1    UNL1	  0.756819
     394     C	 0.5264384537 -2.0467450071 -2.3713769849	  C3      1    UNL1	  0.119511
     395     C	 1.4881772955 -2.4859564196 -2.3713769849	  C3      1    UNL1	  0.337843
     396     C	 2.5346991110 -2.3354892983 -2.3713769849	  C3      1    UNL1	  0.575422
     397     C	 3.3337406180 -1.6431158912 -2.3713769849	  C3      1    UNL1	  0.756819
     398     C	 2.7965371998 -0.6286598629 -3.0373267434	  C3      1    UNL1	  0.634864
     399     C	 2.2758767128 0.2731505540 -3.0373267434	  C3      1    UNL1	  0.516665
     400     C	 1.2345557390 0.2731505540 -3.0373267434	  C3      1    UNL1	  0.280266
     401     C	 0.7138952520 -0.6286598629 -3.0373267434	  C3      1    UNL1	  0.162067
     402     C	 1.2345557390 -1.5304702798 -3.0373267434	  C3      1    UNL1	  0.280266
     403     C	 2.2758767128 -1.5304702798 -3.0373267434	  C3      1    UNL1	  0.516665
     404     C	 1.7552162259 -0.6286598629 -3.2750014604	  C3      1    UNL1	  0.398466
     405     C	 1.7552162259 -0.6286598629 3.2750014604	  C3      1    UNL1	  0.398466
     406     C	 2.7965371998 -0.6286598629 3.0373267434	  C3      1    UNL1	  0.634864
     407     C	 2.2758767128 0.2731505540 3.0373267434	  C3      1    UNL1	  0.516665
     408     C	 1.2345557390 0.2731505540 3.0373267434	  C3      1    UNL1	  0.280266
     409     C	 0.7138952520 -0.6286598629 3.0373267434	  C3      1    UNL1	  0.162067
     410     C	 1.2345557390 -1.5304702798 3.0373267434	  C3      1    UNL1	  0.280266
     411     C	 2.2758767128 -1.5304702798 3.0373267434	  C3      1    UNL1	  0.516665
     412     C	 3.6316117838 -0.6286598629 2.3713769849	  C3      1    UNL1	  0.824441
     413     C	 3.3337406180 0.3857961654 2.3713769849	  C3      1    UNL1	  0.756819
     414     C	 0.5264384537 -2.0467450071 2.3713769849	  C3      1    UNL1	  0.119511
     415     C	 1.4881772955 -2.4859564196 2.3713769849	  C3      1    UNL1	  0.337843
     416     C	 2.5346991110 -2.3354892983 2.3713769849	  C3      1    UNL1	  0.575422
     417     C	 3.3337406180 -1.6431158912 2.3713769849	  C3      1    UNL1	  0.756819
     418     C	 4.0950432151 -0.6286598629 1.4090517019	  C3      1    UNL1	  0.929648
     419     C	 1.2345557390 -2.9098225044 1.4090517019	  C3      1    UNL1	  0.280266
     420     C	 2.2758767128 -2.9098225044 1.4090517019	  C3      1    UNL1	  0.516665
     421     C	 3.2140744918 -2.4580102666 1.4090517019	  C3      1    UNL1	  0.729653
     422     C	 3.8633274995 -1.6438727459 1.4090517019	  C3      1    UNL1	  0.877045
     423     C	 2.4423930229 1.8066693847 2.1623252830	  C3      1    UNL1	  0.554467
     424     C	 3.5002569281 1.9193149961 1.4963755245	  C3      1    UNL1	  0.794621
     425     C	 2.7012154211 2.6116884033 1.4963755245	  C3      1    UNL1	  0.613224
     426     C	 1.6546936056 2.7621555245 1.4963755245	  C3      1    UNL1	  0.375645
     427     C	 4.2615595252 0.9048589678 0.5340502415	  C3      1    UNL1	  0.967451
     428     C	 4.0298438096 1.9200718508 0.5340502415	  C3      1    UNL1	  0.914847
     429     C	 3.3805908019 2.7342093716 0.5340502415	  C3      1    UNL1	  0.767455
     430     C	 2.4423930229 3.1860216093 0.5340502415	  C3      1    UNL1	  0.554467
     431     C	 1.4010720490 3.1860216093 0.5340502415	  C3      1    UNL1	  0.318069
     432     C	 4.2615595252 0.9048589678 -0.5340502415	  C3      1    UNL1	  0.967451
     433     C	 4.0298438096 1.9200718508 -0.5340502415	  C3      1    UNL1	  0.914847
     434     C	 3.3805908019 2.7342093716 -0.5340502415	  C3      1    UNL1	  0.767455
     435     C	 2.4423930229 3.1860216093 -0.5340502415	  C3      1    UNL1	  0.554467
     436     C	 1.4010720490 3.1860216093 -0.5340502415	  C3      1    UNL1	  0.318069
     437     C	 3.5002569281 1.9193149961 -1.4963755245	  C3      1    UNL1	  0.794621
     438     C	 2.7012154211 2.6116884033 -1.4963755245	  C3      1    UNL1	  0.613224
     439     C	 1.6546936056 2.7621555245 -1.4963755245	  C3      1    UNL1	  0.375645
     440     C	 2.4423930229 1.8066693847 -2.1623252830	  C3      1    UNL1	  0.554467
     441     C	 -0.0423311249 0.0984937775 3.0000000000	  C3      1    UNL1	 -0.010722
     442     C	 0.4706990900 0.9870881756 2.8190778624	  C3      1    UNL1	  0.106857
     443     C	 -0.5553613399 0.9870881756 2.8190778624	  C3      1    UNL1	 -0.140662
     444     C	 -1.0683915549 0.0984937775 2.8190778624	  C3      1    UNL1	 -0.270602
     445     C	 -0.5553613399 -0.7901006207 2.8190778624	  C3      1    UNL1	 -0.140662
     446     C	 0.4706990900 0.9870881756 -2.8190778624	  C3      1    UNL1	  0.106857
     447     C	 -0.5553613399 0.9870881756 -2.8190778624	  C3      1    UNL1	 -0.140662
     448     C	 -1.0683915549 0.0984937775 -2.8190778624	  C3      1    UNL1	 -0.270602
     449     C	 -0.5553613399 -0.7901006207 -2.8190778624	  C3      1    UNL1	 -0.140662
     450     C	 -0.0423311249 0.0984937775 -3.0000000000	  C3      1    UNL1	 -0.010722
     451     C	 -0.6706480752 -1.0762091531 2.8000000000	  C3      1    UNL1	 -0.169862
     452     C	 -1.7421616859 -1.0762091531 2.5868626910	  C3      1    UNL1	 -0.441255
     453     C	 -1.2064048806 -2.0041671604 2.5868626910	  C3      1    UNL1	 -0.305558
     454     C	 -0.1348912699 -2.0041671604 2.5868626910	  C3      1    UNL1	 -0.034165
     455     C	 -2.3852908952 -2.0661586468 1.9798989873	  C3      1    UNL1	 -0.604147
     456     C	 -1.6605975689 -2.7908519730 1.9798989873	  C3      1    UNL1	 -0.420596
     457     C	 -0.6706480752 -3.0561081404 1.9798989873	  C3      1    UNL1	 -0.169862
     458     C	 0.3193014184 -2.7908519730 1.9798989873	  C3      1    UNL1	  0.072487
     459     C	 -1.9640794208 -3.3164979596 1.0715136106	  C3      1    UNL1	 -0.497462
     460     C	 -0.9410488570 -3.6489007396 1.0715136106	  C3      1    UNL1	 -0.238349
     461     C	 0.1287364584 -3.5364617722 1.0715136106	  C3      1    UNL1	  0.029225
     462     C	 1.0603009258 -2.9986227762 1.0715136106	  C3      1    UNL1	  0.240707
     463     C	 -2.3580250571 -3.3106573895 0.0000000000	  C3      1    UNL1	 -0.597241
     464     C	 -1.4369044474 -3.7693209540 0.0000000000	  C3      1    UNL1	 -0.363939
     465     C	 -0.4122966687 -3.8642648467 0.0000000000	  C3      1    UNL1	 -0.104427
     466     C	 0.5774193209 -3.5826663689 0.0000000000	  C3      1    UNL1	  0.131085
     467     C	 -1.9640794208 -3.3164979596 -1.0715136106	  C3      1    UNL1	 -0.497462
     468     C	 -0.9410488570 -3.6489007396 -1.0715136106	  C3      1    UNL1	 -0.238349
     469     C	 0.1287364584 -3.5364617722 -1.0715136106	  C3      1    UNL1	  0.029225
     470     C	 1.0603009258 -2.9986227762 -1.0715136106	  C3      1    UNL1	  0.240707
     471     C	 -2.3852908952 -2.0661586468 -1.9798989873	  C3      1    UNL1	 -0.604147
     472     C	 -1.6605975689 -2.7908519730 -1.9798989873	  C3      1    UNL1	 -0.420596
     473     C	 -0.6706480752 -3.0561081404 -1.9798989873	  C3      1    UNL1	 -0.169862
     474     C	 0.3193014184 -2.7908519730 -1.9798989873	  C3      1    UNL1	  0.072487
     475     C	 -1.7421616859 -1.0762091531 -2.5868626910	  C3      1    UNL1	 -0.441255
     476     C	 -1.2064048806 -2.0041671604 -2.5868626910	  C3      1    UNL1	 -0.305558
     477     C	 -0.1348912699 -2.0041671604 -2.5868626910	  C3      1    UNL1	 -0.034165
     478     C	 -0.6706480752 -1.0762091531 -2.8000000000	  C3      1    UNL1	 -0.169862
     479     C	 -2.1290329826 -0.0083555961 2.1623252830	  C3      1    UNL1	 -0.539242
     480     C	 -2.6496934696 -0.9101660130 2.1623252830	  C3      1    UNL1	 -0.671114
     481     C	 -3.4087608492 -0.3815242948 1.4963755245	  C3      1    UNL1	 -0.863371
     482     C	 -3.4087608492 -1.4388077312 1.4963755245	  C3      1    UNL1	 -0.863371
     483     C	 -2.8371502679 -2.3282511572 1.4963755245	  C3      1    UNL1	 -0.718593
     484     C	 -3.7164837693 0.1050468700 0.5340502415	  C3      1    UNL1	 -0.941311
     485     C	 -3.9481994849 -0.9101660130 0.5340502415	  C3      1    UNL1	 -1.000000
     486     C	 -3.7164837693 -1.9253788960 0.5340502415	  C3      1    UNL1	 -0.941311
     487     C	 -3.0672307616 -2.7395164167 0.5340502415	  C3      1    UNL1	 -0.776868
     488     C	 -3.7164837693 0.1050468700 -0.5340502415	  C3      1    UNL1	 -0.941311
     489     C	 -3.9481994849 -0.9101660130 -0.5340502415	  C3      1    UNL1	 -1.000000
     490     C	 -3.7164837693 -1.9253788960 -0.5340502415	  C3      1    UNL1	 -0.941311
     491     C	 -3.0672307616 -2.7395164167 -0.5340502415	  C3      1    UNL1	 -0.776868
     492     C	 -3.4087608492 -0.3815242948 -1.4963755245	  C3      1    UNL1	 -0.863371
     493     C	 -3.4087608492 -1.4388077312 -1.4963755245	  C3      1    UNL1	 -0.863371
     494     C	 -2.8371502679 -2.3282511572 -1.4963755245	  C3      1    UNL1	 -0.718593
     495     C	 -2.1290329826 -0.0083555961 -2.1623252830	  C3      1    UNL1	 -0.539242
     496     C	 -2.6496934696 -0.9101660130 -2.1623252830	  C3      1    UNL1	 -0.671114
     497     C	 -0.6267585452 1.1316050979 2.8000000000	  C3      1    UNL1	 -0.158746
     498     C	 -0.0910017399 2.0595631052 2.5868626910	  C3      1    UNL1	 -0.023049
     499     C	 -1.1625153505 2.0595631052 2.5868626910	  C3      1    UNL1	 -0.294442
     500     C	 -1.6982721558 1.1316050979 2.5868626910	  C3      1    UNL1	 -0.430138
     501     C	 0.3631909484 2.8462479179 1.9798989873	  C3      1    UNL1	  0.082451
     502     C	 -0.6267585452 3.1115040853 1.9798989873	  C3      1    UNL1	 -0.158746
     503     C	 -1.6167080389 2.8462479179 1.9798989873	  C3      1    UNL1	 -0.409480
     504     C	 -2.3414013652 2.1215545916 1.9798989873	  C3      1    UNL1	 -0.593030
     505     C	 -2.6066575325 1.1316050979 1.9798989873	  C3      1    UNL1	 -0.660214
     506     C	 1.1041904558 3.0540187210 1.0715136106	  C3      1    UNL1	  0.250671
     507     C	 0.1726259884 3.5918577170 1.0715136106	  C3      1    UNL1	  0.039189
     508     C	 -0.8971593270 3.7042966845 1.0715136106	  C3      1    UNL1	 -0.227232
     509     C	 -1.9201898907 3.3718939045 1.0715136106	  C3      1    UNL1	 -0.486346
     510     C	 -2.7195744244 2.6521248374 1.0715136106	  C3      1    UNL1	 -0.688814
     511     C	 -3.1570920799 1.6694440940 1.0715136106	  C3      1    UNL1	 -0.799628
     512     C	 -3.1570920799 0.5937661019 1.0715136106	  C3      1    UNL1	 -0.799628
     513     C	 0.6213088509 3.6380623137 0.0000000000	  C3      1    UNL1	  0.141048
     514     C	 -0.3684071387 3.9196607916 0.0000000000	  C3      1    UNL1	 -0.093310
     515     C	 -1.3930149174 3.8247168988 0.0000000000	  C3      1    UNL1	 -0.352823
     516     C	 -2.3141355271 3.3660533343 0.0000000000	  C3      1    UNL1	 -0.586124
     517     C	 -3.0073665253 2.6056151540 0.0000000000	  C3      1    UNL1	 -0.761706
     518     C	 -3.3790832243 1.6461037478 0.0000000000	  C3      1    UNL1	 -0.855854
     519     C	 1.1041904558 3.0540187210 -1.0715136106	  C3      1    UNL1	  0.250671
     520     C	 0.1726259884 3.5918577170 -1.0715136106	  C3      1    UNL1	  0.039189
     521     C	 -0.8971593270 3.7042966845 -1.0715136106	  C3      1    UNL1	 -0.227232
     522     C	 -1.9201898907 3.3718939045 -1.0715136106	  C3      1    UNL1	 -0.486346
     523     C	 -2.7195744244 2.6521248374 -1.0715136106	  C3      1    UNL1	 -0.688814
     524     C	 -3.1570920799 1.6694440940 -1.0715136106	  C3      1    UNL1	 -0.799628
     525     C	 -3.1570920799 0.5937661019 -1.0715136106	  C3      1    UNL1	 -0.799628
     526     C	 0.3631909484 2.8462479179 -1.9798989873	  C3      1    UNL1	  0.082451
     527     C	 -0.6267585452 3.1115040853 -1.9798989873	  C3      1    UNL1	 -0.158746
     528     C	 -1.6167080389 2.8462479179 -1.9798989873	  C3      1    UNL1	 -0.409480
     529     C	 -2.3414013652 2.1215545916 -1.9798989873	  C3      1    UNL1	 -0.593030
     530     C	 -2.6066575325 1.1316050979 -1.9798989873	  C3      1    UNL1	 -0.660214
     531     C	 -0.0910017399 2.0595631052 -2.5868626910	  C3      1    UNL1	 -0.023049
     532     C	 -1.1625153505 2.0595631052 -2.5868626910	  C3      1    UNL1	 -0.294442
     533     C	 -1.6982721558 1.1316050979 -2.5868626910	  C3      1    UNL1	 -0.430138
     534     C	 -0.6267585452 1.1316050979 -2.8000000000	  C3      1    UNL1	 -0.158746
