@<TRIPOS>MOLECULE
*****
 534 0 0 0 0
SMALL
GASTEIGER

@<TRIPOS>ATOM
      1     C	 0.7275390706 -3.0426140562  3.0016686572	  C3      1    UNL1	  0.001813
      2     C	 2.7117515014 -3.0426140562  3.0016686572	  C3      1    UNL1	 -0.002120
      3     C	 5.1564020292 -1.3242356846  1.5491243448	  C3      1    UNL1	  0.002218
      4     C	 1.2305438059 -4.7260111995  1.5491243448	  C3      1    UNL1	 -0.004222
      5     C	 3.1473256332 -4.4504195784  1.5491243448	  C3      1    UNL1	 -0.010573
      6     C	 4.6108290377 -3.1822866596  1.5491243448	  C3      1    UNL1	 -0.009986
      7     C	 5.6880701476 -1.3242356846 -0.4350880860	  C3      1    UNL1	 -0.010322
      8     C	 5.2335109921  0.5199833051 -0.4350880860	  C3      1    UNL1	 -0.001515
      9     C	 2.1979860447 -5.2637262609 -0.4350880860	  C3      1    UNL1	 -0.004537
     10     C	 3.9739675499 -4.5901853187 -0.4350880860	  C3      1    UNL1	 -0.014543
     11     C	 5.2335109921 -3.1684546743 -0.4350880860	  C3      1    UNL1	 -0.017276
     12     C	 5.1564020292 -1.3242356846 -2.4193005168	  C3      1    UNL1	 -0.013026
     13     C	 4.6108290377  0.5338152904 -2.4193005168	  C3      1    UNL1	 -0.005844
     14     C	 3.1473256332  1.8019482092 -2.4193005168	  C3      1    UNL1	  0.000972
     15     C	 3.1473256332 -4.4504195784 -2.4193005168	  C3      1    UNL1	 -0.003288
     16     C	 4.6108290377 -3.1822866596 -2.4193005168	  C3      1    UNL1	 -0.013843
     17     C	 3.7038577168 -1.3242356846 -3.8718448291	  C3      1    UNL1	 -0.006098
     18     C	 2.7117515014  0.3941426870 -3.8718448291	  C3      1    UNL1	 -0.000685
     19     C	 2.7117515014 -3.0426140562 -3.8718448291	  C3      1    UNL1	  0.002807
     20     C	 0.5164347406 -1.0708373062  4.6139731772	  C3      1    UNL1	 -0.006125
     21     C	-0.7420560872 -1.9497863804  3.1614288648	  C3      1    UNL1	  0.004397
     22     C	 3.7628632199  3.9134906995  1.1772164340	  C3      1    UNL1	 -0.008599
     23     C	 1.9868817147  4.5870316417  1.1772164340	  C3      1    UNL1	 -0.007610
     24     C	 4.3997247077  2.5055920404 -0.8069959968	  C3      1    UNL1	 -0.007025
     25     C	 2.9362213032  3.7737249592 -0.8069959968	  C3      1    UNL1	 -0.010083
     26     C	 2.5006471714  2.3659194370 -2.2595403091	  C3      1    UNL1	  0.002132
     27     C	-2.4011337836 -5.3323312910 -1.6140181675	  C3      1    UNL1	  0.006650
     28     C	-0.3671494029 -5.6909776157 -1.6140181675	  C3      1    UNL1	  0.007038
     29     C	-3.7287228021 -3.7501723088 -3.5761153245	  C3      1    UNL1	  0.010954
     30     C	-2.4011337836 -5.3323312910 -3.5761153245	  C3      1    UNL1	  0.009147
     31     C	-0.3671494029 -5.6909776157 -3.5761153245	  C3      1    UNL1	  0.008865
     32     C	 1.4215064430 -4.6582966815 -3.5761153245	  C3      1    UNL1	  0.009357
     33     C	 0.9746100328 -2.7174913746 -5.1634852691	  C3      1    UNL1	  0.006003
     34     C	-2.4011337836 -1.6206457192 -5.1634852691	  C3      1    UNL1	  0.008287
     35     C	-2.4011337836 -3.8143370300 -5.1634852691	  C3      1    UNL1	  0.009167
     36     C	-0.3148093677 -4.4922249254 -5.1634852691	  C3      1    UNL1	  0.008467
     37     C	-0.8914552540 -2.7174913746 -5.7698066353	  C3      1    UNL1	  0.006312
     38     C	-5.3795001336  1.6501867508  1.5115494272	  C3      1    UNL1	  0.008146
     39     C	-5.3795001336  3.1681810118 -0.0758205175	  C3      1    UNL1	  0.009153
     40     C	-6.7070891521  1.5860220295 -0.0758205175	  C3      1    UNL1	  0.008494
     41     C	-6.7070891521 -0.4793398388 -0.0758205175	  C3      1    UNL1	  0.007611
     42     C	-5.3795001336 -2.0614988210 -0.0758205175	  C3      1    UNL1	  0.007037
     43     C	-5.3795001336  3.1681810118 -2.0379176745	  C3      1    UNL1	  0.006448
     44     C	-6.7070891521  1.5860220295 -2.0379176745	  C3      1    UNL1	  0.009502
     45     C	-6.7070891521 -0.4793398388 -2.0379176745	  C3      1    UNL1	  0.010601
     46     C	-5.3795001336 -2.0614988210 -2.0379176745	  C3      1    UNL1	  0.012709
     47     C	-5.3795001336  1.6501867508 -3.6252876191	  C3      1    UNL1	  0.007786
     48     C	-5.3795001336 -0.5435045600 -3.6252876191	  C3      1    UNL1	  0.011902
     49     C	-3.8698216040  0.5533410954 -4.2316089853	  C3      1    UNL1	  0.009411
     50     C	-1.2009923940  3.1053040454  5.6391633233	  C3      1    UNL1	  0.001869
     51     C	 0.6650728928  3.1053040454  5.0328419572	  C3      1    UNL1	  0.002041
     52     C	-0.6243465077  4.8800375962  5.0328419572	  C3      1    UNL1	  0.004326
     53     C	-2.7106709236  4.2021497008  5.0328419572	  C3      1    UNL1	  0.004567
     54     C	-2.7106709236  2.0084583900  5.0328419572	  C3      1    UNL1	 -0.000946
     55     C	 1.1119693030  5.0461093523  3.4454720125	  C3      1    UNL1	  0.000664
     56     C	-0.6766865429  6.0787902864  3.4454720125	  C3      1    UNL1	  0.002787
     57     C	-2.7106709236  5.7201439618  3.4454720125	  C3      1    UNL1	  0.004853
     58     C	-4.0382599421  4.1379849795  3.4454720125	  C3      1    UNL1	  0.004888
     59     C	-4.0382599421  2.0726231112  3.4454720125	  C3      1    UNL1	  0.001831
     60     C	-0.6766865429  6.0787902864  1.4833748555	  C3      1    UNL1	 -0.002427
     61     C	-2.7106709236  5.7201439618  1.4833748555	  C3      1    UNL1	  0.001417
     62     C	-4.0382599421  4.1379849795  1.4833748555	  C3      1    UNL1	  0.007579
     63     C	 2.7925010060  0.9341849254  5.4533201733	  C3      1    UNL1	  0.001377
     64     C	 4.6585662928  0.9341849254  4.8469988072	  C3      1    UNL1	  0.005555
     65     C	 3.3691468923  2.7089184762  4.8469988072	  C3      1    UNL1	  0.003797
     66     C	 3.3691468923 -0.8405486254  4.8469988072	  C3      1    UNL1	  0.001174
     67     C	 5.8118580653  0.9341849254  3.2596288625	  C3      1    UNL1	  0.005991
     68     C	 5.1054627030  2.8749902323  3.2596288625	  C3      1    UNL1	  0.003106
     69     C	 3.3168068571  3.9076711664  3.2596288625	  C3      1    UNL1	  0.000242
     70     C	 5.1054627030 -1.0066203815  3.2596288625	  C3      1    UNL1	  0.005431
     71     C	 5.8118580653  0.9341849254  1.2975317055	  C3      1    UNL1	  0.002935
     72     C	 5.1054627030  2.8749902323  1.2975317055	  C3      1    UNL1	 -0.002990
     73     C	-1.7727471694 -0.0046648662  4.5771117272	  C3      1    UNL1	 -0.004830
     74     C	-4.0781849010  0.7454672409  3.1245674148	  C3      1    UNL1	 -0.001511
     75     C	-3.0312379972 -0.8836139404  3.1245674148	  C3      1    UNL1	 -0.005445
     76     C	-1.2697424341 -1.6880620095  3.1245674148	  C3      1    UNL1	  0.003128
     77     C	 1.4736813099  4.9796631395  1.1403549840	  C3      1    UNL1	 -0.006396
     78     C	 0.6470393932  4.8398973992 -0.8438574468	  C3      1    UNL1	 -0.006502
     79     C	-1.2697424341  5.1154890203 -0.8438574468	  C3      1    UNL1	 -0.005792
     80     C	-3.0312379972  4.3110409512 -0.8438574468	  C3      1    UNL1	  0.001733
     81     C	 0.2114652614  3.4320918770 -2.2964017591	  C3      1    UNL1	 -0.001901
     82     C	-4.1619492648  0.3737426554  2.8546068172	  C3      1    UNL1	 -0.001650
     83     C	-3.1698430494 -1.3446357162  2.8546068172	  C3      1    UNL1	 -0.004883
     84     C	-4.4283338772 -2.2235847904  1.4020625048	  C3      1    UNL1	  0.000297
     85     C	-3.5849596838  4.0842843589 -0.5821499260	  C3      1    UNL1	  0.005738
     86     C	 0.7134469177  2.2317936304 -2.5663623568	  C3      1    UNL1	  0.011349
     87     C	-0.7500564868  3.4999265492 -2.5663623568	  C3      1    UNL1	 -0.004955
     88     C	-2.6668383141  3.7755181703 -2.5663623568	  C3      1    UNL1	 -0.002339
     89     C	-4.4283338772 -2.2235847904 -2.5663623568	  C3      1    UNL1	  0.017860
     90     C	-1.1856306186  2.0921210270 -4.0189066691	  C3      1    UNL1	 -0.000924
     91     C	-3.1698430494  2.0921210270 -4.0189066691	  C3      1    UNL1	  0.002875
     92     C	-1.5345583494 -3.1736852362  1.9209113772	  C3      1    UNL1	  0.004355
     93     C	-2.7930491772 -4.0526343104  0.4683670648	  C3      1    UNL1	  0.002887
     94     C	-1.0315536141 -4.8570823795  0.4683670648	  C3      1    UNL1	  0.002997
     95     C	 0.8852282132  1.6708770292 -3.5000577968	  C3      1    UNL1	  0.005991
     96     C	 1.4417602968 -1.4553068646 -4.9526021091	  C3      1    UNL1	  0.003600
     97     C	 0.4496540814  0.2630715070 -4.9526021091	  C3      1    UNL1	  0.002093
     98     C	-1.5345583494  0.2630715070 -4.9526021091	  C3      1    UNL1	  0.003730
     99     C	 2.7035510102 -3.0284103888  3.6511144910	  C3      1    UNL1	 -0.002210
    100     C	-0.6024081714 -4.0040282285  2.3926518347	  C3      1    UNL1	  0.001005
    101     C	 1.2150148430 -4.8340175088  2.3926518347	  C3      1    UNL1	 -0.003553
    102     C	 3.1926544576 -4.5496758589  2.3926518347	  C3      1    UNL1	 -0.006943
    103     C	 4.7026240680 -3.2412797435  2.3926518347	  C3      1    UNL1	 -0.005445
    104     C	 6.1412774745 -1.3242356846  0.5741206072	  C3      1    UNL1	 -0.004963
    105     C	 0.7357395618 -5.6350083226  0.5741206072	  C3      1    UNL1	 -0.001497
    106     C	 2.7035510102 -5.6350083226  0.5741206072	  C3      1    UNL1	 -0.007093
    107     C	 4.4764878631 -4.7812069335  0.5741206072	  C3      1    UNL1	 -0.011465
    108     C	 5.7033982332 -3.2427099916  0.5741206072	  C3      1    UNL1	 -0.010933
    109     C	 6.1412774745 -1.3242356846 -1.4442967792	  C3      1    UNL1	 -0.010087
    110     C	 5.7033982332  0.5942386223 -1.4442967792	  C3      1    UNL1	 -0.005422
    111     C	 2.7035510102 -5.6350083226 -1.4442967792	  C3      1    UNL1	 -0.003033
    112     C	 4.4764878631 -4.7812069335 -1.4442967792	  C3      1    UNL1	 -0.010450
    113     C	 5.7033982332 -3.2427099916 -1.4442967792	  C3      1    UNL1	 -0.013066
    114     C	 5.2655189919 -1.3242356846 -3.2628280067	  C3      1    UNL1	 -0.009342
    115     C	 4.7026240680  0.5928083743 -3.2628280067	  C3      1    UNL1	 -0.005564
    116     C	 3.1926544576  1.9012044897 -3.2628280067	  C3      1    UNL1	 -0.000914
    117     C	 3.1926544576 -4.5496758589 -3.2628280067	  C3      1    UNL1	 -0.001132
    118     C	 4.7026240680 -3.2412797435 -3.2628280067	  C3      1    UNL1	 -0.008672
    119     C	 3.6874567344 -1.3242356846 -4.5212906630	  C3      1    UNL1	 -0.004217
    120     C	 2.7035510102  0.3799390196 -4.5212906630	  C3      1    UNL1	 -0.001545
    121     C	 2.7035510102 -3.0284103888 -4.5212906630	  C3      1    UNL1	  0.001553
    122     C	 1.5085409560  0.6475410654  5.7125591330	  C3      1    UNL1	 -0.002547
    123     C	 0.5246352318 -1.0566336388  5.2634190110	  C3      1    UNL1	 -0.004873
    124     C	-0.8135125014 -2.0322514785  4.0049563547	  C3      1    UNL1	 -0.001345
    125     C	 1.0039105130 -2.8622407588  4.0049563547	  C3      1    UNL1	 -0.001757
    126     C	 2.9815501276 -2.5778991089  4.0049563547	  C3      1    UNL1	 -0.001443
    127     C	 2.4924466802  4.9583137034  2.1864251272	  C3      1    UNL1	 -0.004215
    128     C	 5.9301731445  0.6475410654  0.1680077408	  C3      1    UNL1	 -0.001245
    129     C	 5.4922939032  2.5660153723  0.1680077408	  C3      1    UNL1	 -0.004165
    130     C	 4.2653835331  4.1045123143  0.1680077408	  C3      1    UNL1	 -0.007762
    131     C	 2.4924466802  4.9583137034  0.1680077408	  C3      1    UNL1	 -0.008407
    132     C	 4.4915197380  2.5645851243 -1.6505234867	  C3      1    UNL1	 -0.005254
    133     C	 2.9815501276  3.8729812397 -1.6505234867	  C3      1    UNL1	 -0.006255
    134     C	-4.0336328477 -4.5316284542 -2.5950667460	  C3      1    UNL1	  0.007883
    135     C	-2.7055923336 -5.8596689683 -2.5950667460	  C3      1    UNL1	  0.006357
    136     C	-0.8914552540 -6.3457655338 -2.5950667460	  C3      1    UNL1	  0.005953
    137     C	 0.9226818256 -5.8596689683 -2.5950667460	  C3      1    UNL1	  0.005771
    138     C	-4.0336328477 -2.7174913746 -4.4092038256	  C3      1    UNL1	  0.010162
    139     C	-3.4335303266 -4.5644170243 -4.4092038256	  C3      1    UNL1	  0.008066
    140     C	-1.8624415298 -5.7058798505 -4.4092038256	  C3      1    UNL1	  0.007340
    141     C	 0.0795310218 -5.7058798505 -4.4092038256	  C3      1    UNL1	  0.006723
    142     C	 1.6506198187 -4.5644170243 -4.4092038256	  C3      1    UNL1	  0.005794
    143     C	 0.9226818256 -2.7174913746 -5.7372443397	  C3      1    UNL1	  0.003974
    144     C	-2.7055923336 -2.7174913746 -5.7372443397	  C3      1    UNL1	  0.006954
    145     C	-1.7985237938 -4.2885801715 -5.7372443397	  C3      1    UNL1	  0.006969
    146     C	 0.0156132858 -4.2885801715 -5.7372443397	  C3      1    UNL1	  0.005978
    147     C	-0.8914552540 -2.7174913746 -6.2233409052	  C3      1    UNL1	  0.004919
    148     C	-6.4118966766  2.4002667451  0.7572679836	  C3      1    UNL1	  0.006530
    149     C	-7.0119991977  0.5533410954  0.7572679836	  C3      1    UNL1	  0.005414
    150     C	-6.4118966766 -1.2935845543  0.7572679836	  C3      1    UNL1	  0.003958
    151     C	-5.6839586836  3.6955186891 -1.0568690960	  C3      1    UNL1	  0.005650
    152     C	-7.0119991977  2.3674781750 -1.0568690960	  C3      1    UNL1	  0.006930
    153     C	-7.4980957631  0.5533410954 -1.0568690960	  C3      1    UNL1	  0.007451
    154     C	-7.0119991977 -1.2607959842 -1.0568690960	  C3      1    UNL1	  0.007342
    155     C	-5.6839586836 -2.5888364983 -1.0568690960	  C3      1    UNL1	  0.007846
    156     C	-4.8408078798  3.5417295713 -2.8710061756	  C3      1    UNL1	  0.003156
    157     C	-6.4118966766  2.4002667451 -2.8710061756	  C3      1    UNL1	  0.006411
    158     C	-7.0119991977  0.5533410954 -2.8710061756	  C3      1    UNL1	  0.008208
    159     C	-6.4118966766 -1.2935845543 -2.8710061756	  C3      1    UNL1	  0.009390
    160     C	-4.7768901438  2.1244298923 -4.1990466897	  C3      1    UNL1	  0.004511
    161     C	-5.6839586836  0.5533410954 -4.1990466897	  C3      1    UNL1	  0.007767
    162     C	-4.7768901438 -1.0177477015 -4.1990466897	  C3      1    UNL1	  0.010867
    163     C	-1.2009923940  3.1053040454  6.0926975932	  C3      1    UNL1	  0.000886
    164     C	 0.6131446856  3.1053040454  5.6066010277	  C3      1    UNL1	  0.000939
    165     C	-0.2939238542  4.6763928423  5.6066010277	  C3      1    UNL1	  0.002483
    166     C	-2.1080609338  4.6763928423  5.6066010277	  C3      1    UNL1	  0.003197
    167     C	-3.0151294736  3.1053040454  5.6066010277	  C3      1    UNL1	  0.001242
    168     C	-2.1080609338  1.5342152485  5.6066010277	  C3      1    UNL1	 -0.002261
    169     C	 1.3410826787  4.9522296951  4.2785605136	  C3      1    UNL1	  0.001067
    170     C	-0.2300061182  6.0936925213  4.2785605136	  C3      1    UNL1	  0.002071
    171     C	-2.1719786698  6.0936925213  4.2785605136	  C3      1    UNL1	  0.003460
    172     C	-3.7430674666  4.9522296951  4.2785605136	  C3      1    UNL1	  0.003694
    173     C	-4.3431699877  3.1053040454  4.2785605136	  C3      1    UNL1	  0.002029
    174     C	 0.6131446856  6.2474816391  2.4644234340	  C3      1    UNL1	 -0.001736
    175     C	-1.2009923940  6.7335782046  2.4644234340	  C3      1    UNL1	  0.000354
    176     C	-3.0151294736  6.2474816391  2.4644234340	  C3      1    UNL1	  0.002271
    177     C	-4.3431699877  4.9194411250  2.4644234340	  C3      1    UNL1	  0.004019
    178     C	-2.1719786698  6.0936925213  0.6502863544	  C3      1    UNL1	 -0.001765
    179     C	 2.7925010060  0.9341849254  5.9068544432	  C3      1    UNL1	  0.000575
    180     C	 4.6066380856  0.9341849254  5.4207578777	  C3      1    UNL1	  0.003371
    181     C	 3.6995695458  2.5052737223  5.4207578777	  C3      1    UNL1	  0.002721
    182     C	 1.8854324662  2.5052737223  5.4207578777	  C3      1    UNL1	  0.001176
    183     C	 3.6995695458 -0.6369038715  5.4207578777	  C3      1    UNL1	  0.001058
    184     C	 5.9346785998  0.9341849254  4.0927173636	  C3      1    UNL1	  0.004169
    185     C	 5.3345760787  2.7811105751  4.0927173636	  C3      1    UNL1	  0.002927
    186     C	 3.7634872818  3.9225734013  4.0927173636	  C3      1    UNL1	  0.001262
    187     C	 3.7634872818 -2.0542035505  4.0927173636	  C3      1    UNL1	  0.000418
    188     C	 5.3345760787 -0.9127407243  4.0927173636	  C3      1    UNL1	  0.003318
    189     C	 6.4207751652  0.9341849254  2.2785802840	  C3      1    UNL1	  0.002708
    190     C	 5.9346785998  2.7483220050  2.2785802840	  C3      1    UNL1	  0.000593
    191     C	 4.6066380856  4.0763625191  2.2785802840	  C3      1    UNL1	 -0.002470
    192     C	 5.9346785998 -0.8799521542  2.2785802840	  C3      1    UNL1	  0.002444
    193     C	-1.7645466782  0.0095388012  5.2265575610	  C3      1    UNL1	 -0.004488
    194     C	-4.1828818600  0.7147254400  3.9680949047	  C3      1    UNL1	 -0.002866
    195     C	-3.1026944114 -0.9660790385  3.9680949047	  C3      1    UNL1	 -0.005220
    196     C	-1.2852713970 -1.7960683188  3.9680949047	  C3      1    UNL1	 -0.001915
    197     C	 1.9762016231  5.1706847543  2.1495636772	  C3      1    UNL1	 -0.003986
    198     C	 1.9762016231  5.1706847543  0.1311462908	  C3      1    UNL1	 -0.007769
    199     C	 0.2032647702  6.0244861434  0.1311462908	  C3      1    UNL1	 -0.005622
    200     C	-1.7645466782  6.0244861434  0.1311462908	  C3      1    UNL1	 -0.003378
    201     C	-3.5374835311  5.1706847543  0.1311462908	  C3      1    UNL1	  0.001531
    202     C	 0.6923682176  4.9391536797 -1.6873849367	  C3      1    UNL1	 -0.005885
    203     C	-1.2852713970  5.2234953296 -1.6873849367	  C3      1    UNL1	 -0.005890
    204     C	-5.5799777400  1.3727307208  2.2455899947	  C3      1    UNL1	  0.003679
    205     C	-5.5799777400 -0.6252454100  2.2455899947	  C3      1    UNL1	  0.000121
    206     C	-4.4997902914 -2.3060498885  2.2455899947	  C3      1    UNL1	 -0.002008
    207     C	-2.6823672770 -3.1360391688  2.2455899947	  C3      1    UNL1	 -0.000976
    208     C	-4.9345794111  3.8307139043  0.4270587672	  C3      1    UNL1	  0.007420
    209     C	-4.9345794111 -3.0832285935  0.4270587672	  C3      1    UNL1	  0.003028
    210     C	-3.1616425582  4.6845152934 -1.5913586192	  C3      1    UNL1	 -0.001318
    211     C	-4.9345794111 -3.0832285935 -1.5913586192	  C3      1    UNL1	  0.009571
    212     C	-0.7047276624  3.5991828297 -3.4098898467	  C3      1    UNL1	 -0.004380
    213     C	-2.6823672770  3.8835244796 -3.4098898467	  C3      1    UNL1	 -0.002536
    214     C	-1.1938311098  2.0779173596 -4.6683525030	  C3      1    UNL1	 -0.001275
    215     C	-3.1616425582  2.0779173596 -4.6683525030	  C3      1    UNL1	  0.001624
    216     C	-1.5263578582 -3.1594815688  2.5703572110	  C3      1    UNL1	  0.001878
    217     C	-2.8645055914 -4.1350994085  1.3118945547	  C3      1    UNL1	  0.000421
    218     C	-1.0470825770 -4.9650886888  1.3118945547	  C3      1    UNL1	  0.000568
    219     C	-3.2992947111 -4.9122781135 -0.5066366728	  C3      1    UNL1	  0.003864
    220     C	-1.5263578582 -5.7660795026 -0.5066366728	  C3      1    UNL1	  0.003393
    221     C	 0.4414535902 -5.7660795026 -0.5066366728	  C3      1    UNL1	  0.002189
    222     C	-4.5262050811 -3.3737811716 -2.5250540592	  C3      1    UNL1	  0.010645
    223     C	 0.9305570376  1.7701333097 -4.3435852867	  C3      1    UNL1	  0.000811
    224     C	 1.4253593144 -1.4553068646 -5.6020479430	  C3      1    UNL1	  0.001721
    225     C	 0.4414535902  0.2488678396 -5.6020479430	  C3      1    UNL1	  0.000689
    226     C	-1.5263578582  0.2488678396 -5.6020479430	  C3      1    UNL1	  0.002202
    227     C	-2.5102635824 -1.4553068646 -5.6020479430	  C3      1    UNL1	  0.006301
    228     C	-0.5424521340 -1.4553068646 -6.0511880649	  C3      1    UNL1	  0.003248
    229     C	-0.6429894450 -4.0508615148  3.1727549386	  C3      1    UNL1	 -0.000153
    230     C	 1.2061956895 -4.8953560693  3.1727549386	  C3      1    UNL1	 -0.002804
    231     C	 3.2183974430 -4.6060451340  3.1727549386	  C3      1    UNL1	 -0.004684
    232     C	 4.7547559764 -3.2747828867  3.1727549386	  C3      1    UNL1	 -0.003201
    233     C	 6.4335193651 -1.3242356846  1.5174624889	  C3      1    UNL1	 -0.001862
    234     C	 0.6707096234 -5.9199230988  1.5174624889	  C3      1    UNL1	 -0.002242
    235     C	 2.7685809487 -5.9199230988  1.5174624889	  C3      1    UNL1	 -0.005698
    236     C	 4.6586977016 -5.0096908440  1.5174624889	  C3      1    UNL1	 -0.007938
    237     C	 5.9666990785 -3.3695089958  1.5174624889	  C3      1    UNL1	 -0.006731
    238     C	 6.8219058224 -1.3242356846 -0.4350880860	  C3      1    UNL1	 -0.006538
    239     C	 6.4335193651  0.6283148903 -0.4350880860	  C3      1    UNL1	 -0.003390
    240     C	 1.7196452860 -6.4264962209 -0.4350880860	  C3      1    UNL1	 -0.001661
    241     C	 3.6721958609 -6.0381097637 -0.4350880860	  C3      1    UNL1	 -0.006325
    242     C	 5.3274883106 -4.9320787092 -0.4350880860	  C3      1    UNL1	 -0.009472
    243     C	 6.4335193651 -3.2767862595 -0.4350880860	  C3      1    UNL1	 -0.009474
    244     C	 6.4335193651 -1.3242356846 -2.3876386608	  C3      1    UNL1	 -0.008202
    245     C	 5.9666990785  0.7210376265 -2.3876386608	  C3      1    UNL1	 -0.005492
    246     C	 2.7685809487 -5.9199230988 -2.3876386608	  C3      1    UNL1	 -0.000858
    247     C	 4.6586977016 -5.0096908440 -2.3876386608	  C3      1    UNL1	 -0.006731
    248     C	 5.9666990785 -3.3695089958 -2.3876386608	  C3      1    UNL1	 -0.009356
    249     C	 5.3274883106 -1.3242356846 -4.0429311106	  C3      1    UNL1	 -0.006613
    250     C	 4.7547559764  0.6263115175 -4.0429311106	  C3      1    UNL1	 -0.004574
    251     C	 3.2183974430  1.9575737648 -4.0429311106	  C3      1    UNL1	 -0.001626
    252     C	 3.2183974430 -4.6060451340 -4.0429311106	  C3      1    UNL1	 -0.000239
    253     C	 4.7547559764 -3.2747828867 -4.0429311106	  C3      1    UNL1	 -0.005572
    254     C	 3.6721958609 -1.3242356846 -5.1489621650	  C3      1    UNL1	 -0.002925
    255     C	 2.6959205735  0.3667227154 -5.1489621650	  C3      1    UNL1	 -0.001553
    256     C	 2.6959205735 -3.0151940846 -5.1489621650	  C3      1    UNL1	  0.000940
    257     C	 1.5085409560  0.6475410654  6.2794769703	  C3      1    UNL1	 -0.001871
    258     C	 0.5322656686 -1.0434173346  5.8910905131	  C3      1    UNL1	 -0.003659
    259     C	 2.4848162435 -1.0434173346  5.8910905131	  C3      1    UNL1	 -0.001717
    260     C	-0.8540937750 -2.0790847648  4.7850594586	  C3      1    UNL1	 -0.002667
    261     C	 0.9950913595 -2.9235793193  4.7850594586	  C3      1    UNL1	 -0.002346
    262     C	 3.0072931130 -2.6342683840  4.7850594586	  C3      1    UNL1	 -0.001679
    263     C	 2.5574766187  5.2432284796  3.1297670089	  C3      1    UNL1	 -0.001711
    264     C	 5.1163839806  4.2553840900  1.1772164340	  C3      1    UNL1	 -0.004123
    265     C	 3.4610915309  5.3614151444  1.1772164340	  C3      1    UNL1	 -0.005425
    266     C	 5.7555947485  2.6928143765 -0.7753341408	  C3      1    UNL1	 -0.004329
    267     C	 4.4475933716  4.3329962248 -0.7753341408	  C3      1    UNL1	 -0.006117
    268     C	 2.5574766187  5.2432284796 -0.7753341408	  C3      1    UNL1	 -0.006666
    269     C	 4.5436516464  2.5980882675 -2.4306265906	  C3      1    UNL1	 -0.004120
    270     C	 3.0072931130  3.9293505148 -2.4306265906	  C3      1    UNL1	 -0.004073
    271     C	-3.9467327351 -5.4242310305 -2.5950667460	  C3      1    UNL1	  0.005906
    272     C	-2.3388844709 -6.5340485553 -2.5950667460	  C3      1    UNL1	  0.005009
    273     C	-0.3994476165 -6.7695388245 -2.5950667460	  C3      1    UNL1	  0.004468
    274     C	 1.4272762175 -6.0767538554 -2.5950667460	  C3      1    UNL1	  0.003560
    275     C	-4.2832147424 -3.7134018181 -4.6359709605	  C3      1    UNL1	  0.007670
    276     C	-3.2063550698 -5.3890281760 -4.6359709605	  C3      1    UNL1	  0.006425
    277     C	-1.3945310621 -6.2164604756 -4.6359709605	  C3      1    UNL1	  0.005779
    278     C	 0.5770159602 -5.9329948082 -4.6359709605	  C3      1    UNL1	  0.005005
    279     C	 2.0823337477 -4.6286295203 -4.6359709605	  C3      1    UNL1	  0.003641
    280     C	-2.9323594685 -2.7174913746 -6.1300165389	  C3      1    UNL1	  0.005902
    281     C	-1.9119073612 -4.4849662711 -6.1300165389	  C3      1    UNL1	  0.005734
    282     C	 0.1289968533 -4.4849662711 -6.1300165389	  C3      1    UNL1	  0.004703
    283     C	-0.8914552540 -2.7174913746 -6.6768751750	  C3      1    UNL1	  0.004020
    284     C	-6.1847214198  3.2248778968  0.9840351185	  C3      1    UNL1	  0.005634
    285     C	-7.2615810924  1.5492515389  0.9840351185	  C3      1    UNL1	  0.004773
    286     C	-7.2615810924 -0.4425693481  0.9840351185	  C3      1    UNL1	  0.003840
    287     C	-5.3172508209  4.3698982761 -1.0568690960	  C3      1    UNL1	  0.003857
    288     C	-6.9250990851  3.2600807513 -1.0568690960	  C3      1    UNL1	  0.005269
    289     C	-7.8330200985  1.5301817911 -1.0568690960	  C3      1    UNL1	  0.005963
    290     C	-7.8330200985 -0.4234996003 -1.0568690960	  C3      1    UNL1	  0.006103
    291     C	-6.9250990851 -2.1533985605 -1.0568690960	  C3      1    UNL1	  0.006073
    292     C	-6.1847214198  3.2248778968 -3.0977733105	  C3      1    UNL1	  0.004329
    293     C	-7.2615810924  1.5492515389 -3.0977733105	  C3      1    UNL1	  0.006174
    294     C	-7.2615810924 -0.4425693481 -3.0977733105	  C3      1    UNL1	  0.007216
    295     C	-6.1847214198 -2.1181957060 -3.0977733105	  C3      1    UNL1	  0.008495
    296     C	-4.8902737112  2.3208159919 -4.5918188889	  C3      1    UNL1	  0.003550
    297     C	-5.9107258185  0.5533410954 -4.5918188889	  C3      1    UNL1	  0.006420
    298     C	-1.2009923940  3.1053040454  6.5462318631	  C3      1    UNL1	  0.000414
    299     C	 0.8399118206  3.1053040454  5.9993732270	  C3      1    UNL1	  0.000544
    300     C	-0.1805402867  4.8727789419  5.9993732270	  C3      1    UNL1	  0.001705
    301     C	-2.2214445012  4.8727789419  5.9993732270	  C3      1    UNL1	  0.002265
    302     C	-3.2418966085  3.1053040454  5.9993732270	  C3      1    UNL1	  0.000751
    303     C	 1.7727966077  5.0164421911  4.5053276485	  C3      1    UNL1	  0.000636
    304     C	 0.2674788202  6.3208074790  4.5053276485	  C3      1    UNL1	  0.001095
    305     C	-1.7040682021  6.6042731464  4.5053276485	  C3      1    UNL1	  0.002212
    306     C	-3.5158922098  5.7768408468  4.5053276485	  C3      1    UNL1	  0.002827
    307     C	-4.5927518824  4.1012144889  4.5053276485	  C3      1    UNL1	  0.002404
    308     C	 1.1177390775  6.4645665262  2.4644234340	  C3      1    UNL1	 -0.002110
    309     C	-0.7089847565  7.1573514953  2.4644234340	  C3      1    UNL1	 -0.000461
    310     C	-2.6484216109  6.9218612261  2.4644234340	  C3      1    UNL1	  0.001153
    311     C	-4.2562698751  5.8120437013  2.4644234340	  C3      1    UNL1	  0.002671
    312     C	-5.1641908885  4.0821447411  2.4644234340	  C3      1    UNL1	  0.004193
    313     C	 2.7925010060  0.9341849254  6.3603887131	  C3      1    UNL1	  0.000165
    314     C	 4.8334052206  0.9341849254  5.8135300770	  C3      1    UNL1	  0.002283
    315     C	 3.8129531133  2.7016598219  5.8135300770	  C3      1    UNL1	  0.001862
    316     C	 3.8129531133 -0.8332899711  5.8135300770	  C3      1    UNL1	  0.000417
    317     C	 6.3274507990  0.9341849254  4.3194844985	  C3      1    UNL1	  0.002784
    318     C	 5.7662900077  2.8453230711  4.3194844985	  C3      1    UNL1	  0.002031
    319     C	 4.2609722202  4.1496883590  4.3194844985	  C3      1    UNL1	  0.000820
    320     C	 5.7662900077 -0.9769532203  4.3194844985	  C3      1    UNL1	  0.002060
    321     C	 6.8743094351  0.9341849254  2.2785802840	  C3      1    UNL1	  0.001379
    322     C	 6.4067628751  2.8310958862  2.2785802840	  C3      1    UNL1	  0.000096
    323     C	 5.1112324775  4.2934474062  2.2785802840	  C3      1    UNL1	 -0.002064
    324     C	 6.4067628751 -0.9627260354  2.2785802840	  C3      1    UNL1	  0.000698
    325     C	-1.7569162414  0.0227551054  5.8542290631	  C3      1    UNL1	 -0.003551
    326     C	-4.2423409860  0.6972666654  4.7481980086	  C3      1    UNL1	 -0.002413
    327     C	-3.1432756850 -1.0129123248  4.7481980086	  C3      1    UNL1	 -0.004003
    328     C	-1.2940905505 -1.8574068793  4.7481980086	  C3      1    UNL1	 -0.002952
    329     C	 2.1584114616  5.3991686648  3.0929055589	  C3      1    UNL1	 -0.001683
    330     C	-5.4945150330  1.7137135054  3.0929055589	  C3      1    UNL1	  0.001875
    331     C	 1.1719096209  6.4275875844  1.1403549840	  C3      1    UNL1	 -0.004244
    332     C	-4.3884839786  5.3215565300  1.1403549840	  C3      1    UNL1	  0.002979
    333     C	 2.1584114616  5.3991686648 -0.8121955908	  C3      1    UNL1	 -0.006448
    334     C	 0.2682947087  6.3094009196 -0.8121955908	  C3      1    UNL1	 -0.005086
    335     C	-1.8295766166  6.3094009196 -0.8121955908	  C3      1    UNL1	 -0.003475
    336     C	-3.7196933695  5.3991686648 -0.8121955908	  C3      1    UNL1	  0.000225
    337     C	 0.7181112030  4.9955229548 -2.4674880406	  C3      1    UNL1	 -0.004718
    338     C	-1.2940905505  5.2848338901 -2.4674880406	  C3      1    UNL1	 -0.004955
    339     C	-5.6394368660  1.3901894954  3.0256930986	  C3      1    UNL1	  0.001572
    340     C	-5.6394368660 -0.6427041846  3.0256930986	  C3      1    UNL1	 -0.000901
    341     C	-4.5403715650 -2.3528831748  3.0256930986	  C3      1    UNL1	 -0.002340
    342     C	-2.6911864305 -3.1973777293  3.0256930986	  C3      1    UNL1	 -0.001538
    343     C	-6.4247906264 -1.6715306558  1.3704006489	  C3      1    UNL1	  0.002105
    344     C	-5.1167892495 -3.3117125040  1.3704006489	  C3      1    UNL1	  0.000737
    345     C	-5.7855798586 -3.2341003692 -0.5821499260	  C3      1    UNL1	  0.005145
    346     C	-3.2266724966  4.9694300696 -2.5347005008	  C3      1    UNL1	 -0.001787
    347     C	-0.6789846770  3.6555521048 -4.1899929506	  C3      1    UNL1	 -0.003127
    348     C	-2.6911864305  3.9448630401 -4.1899929506	  C3      1    UNL1	 -0.001767
    349     C	-4.5403715650  3.1003684856 -4.1899929506	  C3      1    UNL1	  0.002191
    350     C	-1.2014615465  2.0647010554 -5.2960240050	  C3      1    UNL1	 -0.000824
    351     C	-3.1540121214  2.0647010554 -5.2960240050	  C3      1    UNL1	  0.001364
    352     C	-4.1302874088  0.3737426554 -5.2960240050	  C3      1    UNL1	  0.005470
    353     C	-1.5187274214 -3.1462652646  3.1980287131	  C3      1    UNL1	  0.000263
    354     C	-2.9050868650 -4.1819326948  2.0919976586	  C3      1    UNL1	 -0.000439
    355     C	-1.0559017305 -5.0264272493  2.0919976586	  C3      1    UNL1	 -0.000263
    356     C	-3.4815045495 -5.1407620240  0.4367052089	  C3      1    UNL1	  0.001831
    357     C	-1.5913877966 -6.0509942788  0.4367052089	  C3      1    UNL1	  0.001335
    358     C	-4.1502951586 -5.0631498892 -1.5158453660	  C3      1    UNL1	  0.005163
    359     C	 0.9563000230  1.8265025848 -5.1236883906	  C3      1    UNL1	 -0.000472
    360     C	 2.4926585564 -3.4058540667 -5.1236883906	  C3      1    UNL1	  0.001858
    361     C	 1.4100984409 -1.4553068646 -6.2297194450	  C3      1    UNL1	  0.001109
    362     C	 0.4338231535  0.2356515354 -6.2297194450	  C3      1    UNL1	  0.000422
    363     C	-1.5187274214  0.2356515354 -6.2297194450	  C3      1    UNL1	  0.001796
    364     C	-2.4950027088 -1.4553068646 -6.2297194450	  C3      1    UNL1	  0.004744
    365     C	-0.5424521340 -1.4553068646 -6.6181059023	  C3      1    UNL1	  0.002604
    366     C	-0.6667180560 -4.0782457916  3.9077545042	  C3      1    UNL1	 -0.000876
    367     C	 1.2010389695 -4.9312218445  3.9077545042	  C3      1    UNL1	 -0.002319
    368     C	 3.2334498361 -4.6390052774  3.9077545042	  C3      1    UNL1	 -0.003362
    369     C	 4.7852384542 -3.2943727856  3.9077545042	  C3      1    UNL1	 -0.002121
    370     C	-0.7351809591 -5.5761194649  2.3995011009	  C3      1    UNL1	 -0.000809
    371     C	 1.2064468560 -6.2069925848  2.3995011009	  C3      1    UNL1	 -0.002714
    372     C	 3.2368113420 -5.9935926782  2.3995011009	  C3      1    UNL1	 -0.004715
    373     C	 5.0048440338 -4.9728185276  2.3995011009	  C3      1    UNL1	 -0.005502
    374     C	 6.2048360171 -3.3211712571  2.3995011009	  C3      1    UNL1	 -0.004041
    375     C	 7.3026961017 -1.3242356846  0.5493544075	  C3      1    UNL1	 -0.003946
    376     C	 0.1917709061 -6.6941571262  0.5493544075	  C3      1    UNL1	 -0.000399
    377     C	 2.2347842256 -6.8834701897  0.5493544075	  C3      1    UNL1	 -0.003130
    378     C	 4.2082251768 -6.3219778285  0.5493544075	  C3      1    UNL1	 -0.005829
    379     C	 5.8455696241 -5.0855126974  0.5493544075	  C3      1    UNL1	 -0.007202
    380     C	 6.9256851270 -3.3410662637  0.5493544075	  C3      1    UNL1	 -0.006461
    381     C	 7.3026961017 -1.3242356846 -1.4195305794	  C3      1    UNL1	 -0.006165
    382     C	 6.9256851270  0.6925948944 -1.4195305794	  C3      1    UNL1	 -0.004317
    383     C	 2.2347842256 -6.8834701897 -1.4195305794	  C3      1    UNL1	 -0.000974
    384     C	 4.2082251768 -6.3219778285 -1.4195305794	  C3      1    UNL1	 -0.004728
    385     C	 5.8455696241 -5.0855126974 -1.4195305794	  C3      1    UNL1	 -0.007230
    386     C	 6.9256851270 -3.3410662637 -1.4195305794	  C3      1    UNL1	 -0.007632
    387     C	 6.6292977762 -1.3242356846 -3.2696772728	  C3      1    UNL1	 -0.006372
    388     C	 6.2048360171  0.6726998879 -3.2696772728	  C3      1    UNL1	 -0.004876
    389     C	 5.0048440338  2.3243471584 -3.2696772728	  C3      1    UNL1	 -0.003618
    390     C	 3.2368113420 -5.9935926782 -3.2696772728	  C3      1    UNL1	 -0.000862
    391     C	 5.0048440338 -4.9728185276 -3.2696772728	  C3      1    UNL1	 -0.004837
    392     C	 6.2048360171 -3.3211712571 -3.2696772728	  C3      1    UNL1	 -0.006727
    393     C	 5.3637229017 -1.3242356846 -4.7779306762	  C3      1    UNL1	 -0.004756
    394     C	 4.7852384542  0.6459014164 -4.7779306762	  C3      1    UNL1	 -0.003639
    395     C	 3.2334498361  1.9905339082 -4.7779306762	  C3      1    UNL1	 -0.001788
    396     C	 3.2334498361 -4.6390052774 -4.7779306762	  C3      1    UNL1	  0.000108
    397     C	 4.7852384542 -3.2943727856 -4.7779306762	  C3      1    UNL1	 -0.003720
    398     C	 3.6586184859 -1.3242356846 -5.7623731697	  C3      1    UNL1	 -0.002072
    399     C	 1.5085409560  0.6475410654  6.8463948077	  C3      1    UNL1	 -0.001403
    400     C	 0.5390543561 -1.0316589830  6.5045015177	  C3      1    UNL1	 -0.002747
    401     C	 2.4780275560 -1.0316589830  6.5045015177	  C3      1    UNL1	 -0.001409
    402     C	-0.8778223860 -2.1064690416  5.5200590242	  C3      1    UNL1	 -0.002684
    403     C	 0.9899346395 -2.9594450945  5.5200590242	  C3      1    UNL1	 -0.002251
    404     C	 3.0223455061 -2.6672285274  5.5200590242	  C3      1    UNL1	 -0.001572
    405     C	 3.0257070120  5.3168980589  4.0118056209	  C3      1    UNL1	 -0.000514
    406     C	 3.9971208468  5.6452832093  2.1616589275	  C3      1    UNL1	 -0.003029
    407     C	 7.0915917717  0.6475410654  0.1927739406	  C3      1    UNL1	 -0.002297
    408     C	 6.7145807970  2.6643716444  0.1927739406	  C3      1    UNL1	 -0.002554
    409     C	 5.6344652941  4.4088180781  0.1927739406	  C3      1    UNL1	 -0.003985
    410     C	 3.9971208468  5.6452832093  0.1927739406	  C3      1    UNL1	 -0.004944
    411     C	 5.9937316871  2.6444766379 -1.6573727528	  C3      1    UNL1	 -0.004000
    412     C	 4.7937397038  4.2961239084 -1.6573727528	  C3      1    UNL1	 -0.004615
    413     C	 3.0257070120  5.3168980589 -1.6573727528	  C3      1    UNL1	 -0.005009
    414     C	 3.0223455061  3.9623106582 -3.1656261562	  C3      1    UNL1	 -0.002983
    415     C	-1.8753609782 -7.0282640126 -1.5858580528	  C3      1    UNL1	  0.003289
    416     C	-4.8752082011 -4.6359656816 -3.6042754392	  C3      1    UNL1	  0.006369
    417     C	-3.6482978311 -6.1744626235 -3.6042754392	  C3      1    UNL1	  0.005135
    418     C	-1.8753609782 -7.0282640126 -3.6042754392	  C3      1    UNL1	  0.004483
    419     C	 0.0924504702 -7.0282640126 -3.6042754392	  C3      1    UNL1	  0.003815
    420     C	 1.8653873231 -6.1744626235 -3.6042754392	  C3      1    UNL1	  0.002622
    421     C	-4.2936961600 -3.7164794400 -5.4228066667	  C3      1    UNL1	  0.006286
    422     C	-3.2135087114 -5.3972839185 -5.4228066667	  C3      1    UNL1	  0.005442
    423     C	-1.3960856970 -6.2272731988 -5.4228066667	  C3      1    UNL1	  0.004810
    424     C	 0.5815539176 -5.9429315489 -5.4228066667	  C3      1    UNL1	  0.003977
    425     C	 2.0915235280 -4.6345354335 -5.4228066667	  C3      1    UNL1	  0.002584
    426     C	-2.8592667024 -2.7174913746 -6.6812693230	  C3      1    UNL1	  0.004815
    427     C	-1.8753609782 -4.4216660788 -6.6812693230	  C3      1    UNL1	  0.004682
    428     C	 0.0924504702 -4.4216660788 -6.6812693230	  C3      1    UNL1	  0.003741
    429     C	-0.8914552540 -2.7174913746 -7.1304094449	  C3      1    UNL1	  0.003372
    430     C	-7.2720625100  1.5523291608  1.7708708247	  C3      1    UNL1	  0.003513
    431     C	-7.2720625100 -0.4456469700  1.7708708247	  C3      1    UNL1	  0.002479
    432     C	-6.6266641811  4.0103123443 -0.0476604028	  C3      1    UNL1	  0.004326
    433     C	-7.8535745511  2.4718154023 -0.0476604028	  C3      1    UNL1	  0.004608
    434     C	-8.2914537925  0.5533410954 -0.0476604028	  C3      1    UNL1	  0.004588
    435     C	-7.8535745511 -1.3651332116 -0.0476604028	  C3      1    UNL1	  0.004290
    436     C	-6.6266641811  4.0103123443 -2.0660777892	  C3      1    UNL1	  0.003722
    437     C	-7.8535745511  2.4718154023 -2.0660777892	  C3      1    UNL1	  0.004876
    438     C	-8.2914537925  0.5533410954 -2.0660777892	  C3      1    UNL1	  0.005481
    439     C	-7.8535745511 -1.3651332116 -2.0660777892	  C3      1    UNL1	  0.005807
    440     C	-6.6266641811 -2.9036301535 -2.0660777892	  C3      1    UNL1	  0.006368
    441     C	-6.1918750614  3.2331336393 -3.8846090167	  C3      1    UNL1	  0.003490
    442     C	-7.2720625100  1.5523291608 -3.8846090167	  C3      1    UNL1	  0.005134
    443     C	-7.2720625100 -0.4456469700 -3.8846090167	  C3      1    UNL1	  0.006206
    444     C	-6.1918750614 -2.1264514485 -3.8846090167	  C3      1    UNL1	  0.007489
    445     C	-5.8376330524  0.5533410954 -5.1430716730	  C3      1    UNL1	  0.005349
    446     C	-1.2009923940  3.1053040454  6.9997661330	  C3      1    UNL1	  0.000172
    447     C	 0.7668190544  3.1053040454  6.5506260110	  C3      1    UNL1	  0.000245
    448     C	-0.2170866698  4.8094787496  6.5506260110	  C3      1    UNL1	  0.001170
    449     C	-2.1848981182  4.8094787496  6.5506260110	  C3      1    UNL1	  0.001525
    450     C	-3.1688038424  3.1053040454  6.5506260110	  C3      1    UNL1	  0.000433
    451     C	 1.7819863880  5.0223481043  5.2921633547	  C3      1    UNL1	  0.000743
    452     C	 0.2720167776  6.3307442197  5.2921633547	  C3      1    UNL1	  0.001039
    453     C	-1.7056228370  6.6150858696  5.2921633547	  C3      1    UNL1	  0.001773
    454     C	-3.5230458514  5.7850965893  5.2921633547	  C3      1    UNL1	  0.002141
    455     C	-4.6032333000  4.1042921108  5.2921633547	  C3      1    UNL1	  0.001672
    456     C	 1.5558501831  6.5622752943  3.4736321272	  C3      1    UNL1	 -0.000915
    457     C	-0.2170866698  7.4160766834  3.4736321272	  C3      1    UNL1	  0.000069
    458     C	-2.1848981182  7.4160766834  3.4736321272	  C3      1    UNL1	  0.001140
    459     C	-3.9578349711  6.5622752943  3.4736321272	  C3      1    UNL1	  0.002036
    460     C	-5.1847453411  5.0237783523  3.4736321272	  C3      1    UNL1	  0.002642
    461     C	-0.2170866698  7.4160766834  1.4552147408	  C3      1    UNL1	 -0.002040
    462     C	-2.1848981182  7.4160766834  1.4552147408	  C3      1    UNL1	 -0.000474
    463     C	-3.9578349711  6.5622752943  1.4552147408	  C3      1    UNL1	  0.001251
    464     C	 2.7925010060  0.9341849254  6.8139229830	  C3      1    UNL1	 -0.000057
    465     C	 4.7603124544  0.9341849254  6.3647828610	  C3      1    UNL1	  0.001398
    466     C	 3.7764067302  2.6383596296  6.3647828610	  C3      1    UNL1	  0.001225
    467     C	 3.7764067302 -0.7699897788  6.3647828610	  C3      1    UNL1	  0.000012
    468     C	 6.3383747119  0.9341849254  5.1063202047	  C3      1    UNL1	  0.001921
    469     C	 5.7754797880  2.8512289843  5.1063202047	  C3      1    UNL1	  0.001582
    470     C	 4.2655101776  4.1596250997  5.1063202047	  C3      1    UNL1	  0.000891
    471     C	 5.7754797880 -0.9828591335  5.1063202047	  C3      1    UNL1	  0.001222
    472     C	 7.2141331945  0.9341849254  3.2877889772	  C3      1    UNL1	  0.001283
    473     C	 6.7762539532  2.8526592323  3.2877889772	  C3      1    UNL1	  0.000694
    474     C	 5.5493435831  4.3911561743  3.2877889772	  C3      1    UNL1	 -0.000473
    475     C	 6.7762539532 -0.9842893816  3.2877889772	  C3      1    UNL1	  0.000710
    476     C	 7.2141331945  0.9341849254  1.2693715908	  C3      1    UNL1	 -0.000573
    477     C	 6.7762539532  2.8526592323  1.2693715908	  C3      1    UNL1	 -0.001384
    478     C	-0.7806409540  1.7137135054  6.8095333577	  C3      1    UNL1	 -0.001338
    479     C	-1.7501275539  0.0345134570  6.4676400677	  C3      1    UNL1	 -0.002697
    480     C	-4.2771078216  0.6870582014  5.4831975742	  C3      1    UNL1	 -0.001812
    481     C	-3.1670042960 -1.0402966016  5.4831975742	  C3      1    UNL1	 -0.003011
    482     C	-1.2992472705 -1.8932726545  5.4831975742	  C3      1    UNL1	 -0.002839
    483     C	-5.5830057577  2.7344876560  3.9749441709	  C3      1    UNL1	  0.001663
    484     C	-5.5830057577  0.6929393548  3.9749441709	  C3      1    UNL1	 -0.000471
    485     C	 1.7079389368  6.7114556493  2.1247974775	  C3      1    UNL1	 -0.002671
    486     C	-5.5274464271  4.6528110217  2.1247974775	  C3      1    UNL1	  0.003517
    487     C	 1.7079389368  6.7114556493  0.1559124906	  C3      1    UNL1	 -0.004393
    488     C	-0.2655020144  7.2729480105  0.1559124906	  C3      1    UNL1	 -0.003196
    489     C	-2.3085153339  7.0836349470  0.1559124906	  C3      1    UNL1	 -0.001556
    490     C	-4.1451807521  6.1690842370  0.1559124906	  C3      1    UNL1	  0.000898
    491     C	 0.7365251020  6.3830704989 -1.6942342028	  C3      1    UNL1	 -0.004401
    492     C	-1.2938393840  6.5964704055 -1.6942342028	  C3      1    UNL1	 -0.003529
    493     C	-3.2354671991  5.9655972857 -1.6942342028	  C3      1    UNL1	 -0.001463
    494     C	 0.7331635961  5.0284830982 -3.2024876062	  C3      1    UNL1	 -0.003700
    495     C	-5.6742037016 -0.6529126486  3.7606926642	  C3      1    UNL1	 -0.001150
    496     C	-4.5641001760 -2.3802674516  3.7606926642	  C3      1    UNL1	 -0.002142
    497     C	-2.6963431505 -3.2332435045  3.7606926642	  C3      1    UNL1	 -0.001705
    498     C	-6.1497291350  3.2595639830  2.2524392609	  C3      1    UNL1	  0.003891
    499     C	-6.9801016377  1.3945168060  2.2524392609	  C3      1    UNL1	  0.002895
    500     C	-6.9801016377 -0.6470314952  2.2524392609	  C3      1    UNL1	  0.001596
    501     C	-6.1497291350 -2.5120786722  2.2524392609	  C3      1    UNL1	  0.000412
    502     C	-4.6325630791 -3.8781411249  2.2524392609	  C3      1    UNL1	 -0.000338
    503     C	-5.5422766321  4.8291133870  0.4022925675	  C3      1    UNL1	  0.003680
    504     C	-6.9245423071 -2.5653548609  0.4022925675	  C3      1    UNL1	  0.003341
    505     C	-5.5422766321 -4.0816280763  0.4022925675	  C3      1    UNL1	  0.002524
    506     C	-5.5422766321  4.8291133870 -1.5665924194	  C3      1    UNL1	  0.002620
    507     C	-2.6909352640  5.2564995555 -3.4167391128	  C3      1    UNL1	 -0.002228
    508     C	-4.6325630791  4.6256264357 -3.4167391128	  C3      1    UNL1	  0.000849
    509     C	-0.6639322839  3.6885122482 -4.9249925162	  C3      1    UNL1	 -0.002143
    510     C	-2.6963431505  3.9807288153 -4.9249925162	  C3      1    UNL1	 -0.001048
    511     C	-4.5641001760  3.1277527624 -4.9249925162	  C3      1    UNL1	  0.001808
    512     C	-3.1472234339  2.0529427038 -5.9094350097	  C3      1    UNL1	  0.001317
    513     C	-4.1167100339  0.3737426554 -5.9094350097	  C3      1    UNL1	  0.004269
    514     C	-2.9288154760 -4.2093169716  2.8269972242	  C3      1    UNL1	 -0.000791
    515     C	-1.0610584505 -5.0622930245  2.8269972242	  C3      1    UNL1	 -0.000633
    516     C	-2.9972783791 -5.7071906449  1.3187438209	  C3      1    UNL1	  0.000730
    517     C	-1.0556505640 -6.3380637648  1.3187438209	  C3      1    UNL1	  0.000010
    518     C	-5.2892576071 -4.3944043809 -0.5314028725	  C3      1    UNL1	  0.003874
    519     C	-3.9069919321 -5.9106775963 -0.5314028725	  C3      1    UNL1	  0.002902
    520     C	-2.0703265139 -6.8252283062 -0.5314028725	  C3      1    UNL1	  0.002289
    521     C	-0.0273131944 -7.0145413697 -0.5314028725	  C3      1    UNL1	  0.001159
    522     C	-5.2892576071 -4.3944043809 -2.5002878594	  C3      1    UNL1	  0.006184
    523     C	 0.9747139220  3.2140501289 -4.3504345528	  C3      1    UNL1	 -0.001391
    524     C	-5.3448169377 -2.4760810152 -4.3504345528	  C3      1    UNL1	  0.008011
    525     C	 2.5231410342  0.5148302364 -5.8586879562	  C3      1    UNL1	 -0.001173
    526     C	 0.9713524161  1.8594627282 -5.8586879562	  C3      1    UNL1	 -0.000678
    527     C	-1.0610584505  2.1516792953 -5.8586879562	  C3      1    UNL1	 -0.000525
    528     C	-4.0389190016 -2.4819621686 -5.8586879562	  C3      1    UNL1	  0.006199
    529     C	 2.5231410342 -3.4254439656 -5.8586879562	  C3      1    UNL1	  0.001170
    530     C	 1.3965210659 -1.4553068646 -6.8431304497	  C3      1    UNL1	  0.000873
    531     C	 0.4270344660  0.2238931838 -6.8431304497	  C3      1    UNL1	  0.000420
    532     C	-1.5119387339  0.2238931838 -6.8431304497	  C3      1    UNL1	  0.001624
    533     C	-2.4814253339 -1.4553068646 -6.8431304497	  C3      1    UNL1	  0.003790
    534     C	-0.5424521340 -1.4553068646 -7.1850237397	  C3      1    UNL1	  0.002200
