@<TRIPOS>MOLECULE
*****
 923 0 0 0 0
SMALL
GASTEIGER

@<TRIPOS>ATOM
       1     C	 2.7696452868 -1.3242356852 1.3835652618	  C3      1    UNL1	  0.539647
       2     C	 0.6696452868 -1.3242356852 1.3835652618	  C3      1    UNL1	  0.130476
       3     C	 1.1946452868 -2.2335623592 1.3835652618	  C3      1    UNL1	  0.232769
       4     C	 2.2446452868 -2.2335623592 1.3835652618	  C3      1    UNL1	  0.437354
       5     C	 3.5382986348 -1.3242356852 0.6149119138	  C3      1    UNL1	  0.689414
       6     C	 -0.0253398220 -0.8118618275 0.6149119138	  C3      1    UNL1	 -0.004081
       7     C	 -0.0253398220 -1.8366095430 0.6149119138	  C3      1    UNL1	 -0.004081
       8     C	 0.5286806206 -2.6986821788 0.6149119138	  C3      1    UNL1	  0.103010
       9     C	 1.4608239298 -3.1243777644 0.6149119138	  C3      1    UNL1	  0.284632
      10     C	 2.4751411910 -2.9785409590 0.6149119138	  C3      1    UNL1	  0.482265
      11     C	 3.2495938408 -2.3074739179 0.6149119138	  C3      1    UNL1	  0.633162
      12     C	 3.8196452868 -1.3242356852 -0.4350880862	  C3      1    UNL1	  0.744232
      13     C	 3.5791029407 -0.3483170239 -0.4350880862	  C3      1    UNL1	  0.697364
      14     C	 2.9125812550 0.4040304331 -0.4350880862	  C3      1    UNL1	  0.567497
      15     C	 0.9749750241 -3.2877697949 -0.4350880862	  C3      1    UNL1	  0.189967
      16     C	 1.9727723154 -3.4089243208 -0.4350880862	  C3      1    UNL1	  0.384382
      17     C	 2.9125812550 -3.0525018036 -0.4350880862	  C3      1    UNL1	  0.567497
      18     C	 3.5791029407 -2.3001543465 -0.4350880862	  C3      1    UNL1	  0.697364
      19     C	 3.5382986348 -1.3242356852 -1.4850880862	  C3      1    UNL1	  0.689414
      20     C	 3.2495938408 -0.3409974525 -1.4850880862	  C3      1    UNL1	  0.633162
      21     C	 2.4751411910 0.3300695885 -1.4850880862	  C3      1    UNL1	  0.482265
      22     C	 1.4608239298 0.4759063939 -1.4850880862	  C3      1    UNL1	  0.284632
      23     C	 1.4608239298 -3.1243777644 -1.4850880862	  C3      1    UNL1	  0.284632
      24     C	 2.4751411910 -2.9785409590 -1.4850880862	  C3      1    UNL1	  0.482265
      25     C	 3.2495938408 -2.3074739179 -1.4850880862	  C3      1    UNL1	  0.633162
      26     C	 2.7696452868 -1.3242356852 -2.2537414341	  C3      1    UNL1	  0.539647
      27     C	 2.2446452868 -0.4149090113 -2.2537414341	  C3      1    UNL1	  0.437354
      28     C	 1.1946452868 -0.4149090113 -2.2537414341	  C3      1    UNL1	  0.232769
      29     C	 2.2446452868 -2.2335623592 -2.2537414341	  C3      1    UNL1	  0.437354
      30     C	 1.7196452868 -1.3242356852 -2.5350880862	  C3      1    UNL1	  0.335061
      31     C	 0.9835409567 1.5568677397 2.9958697825	  C3      1    UNL1	  0.191636
      32     C	 0.4585409567 0.6475410657 2.9958697825	  C3      1    UNL1	  0.089344
      33     C	 0.9835409567 -0.2617856083 2.9958697825	  C3      1    UNL1	  0.191636
      34     C	 1.2497195997 2.4476831448 2.2272164346	  C3      1    UNL1	  0.243500
      35     C	 0.3175762905 -0.7269054279 2.2272164346	  C3      1    UNL1	  0.061878
      36     C	 1.2497195997 -1.1526010135 2.2272164346	  C3      1    UNL1	  0.243500
      37     C	 2.2640368609 -1.0067642081 2.2272164346	  C3      1    UNL1	  0.441133
      38     C	 2.7014769249 2.3758071841 1.1772164346	  C3      1    UNL1	  0.526365
      39     C	 1.7616679853 2.7322297013 1.1772164346	  C3      1    UNL1	  0.343249
      40     C	 -0.0633316144 -0.7450165166 1.1772164346	  C3      1    UNL1	 -0.010199
      41     C	 3.3679986106 -0.3283775956 1.1772164346	  C3      1    UNL1	  0.656232
      42     C	 3.3271943047 0.6475410657 0.1272164346	  C3      1    UNL1	  0.648282
      43     C	 3.0384895107 1.6307792984 0.1272164346	  C3      1    UNL1	  0.592030
      44     C	 2.2640368609 2.3018463394 0.1272164346	  C3      1    UNL1	  0.441133
      45     C	 1.2497195997 2.4476831448 0.1272164346	  C3      1    UNL1	  0.243500
      46     C	 2.5585409567 0.6475410657 -0.6414369134	  C3      1    UNL1	  0.498515
      47     C	 2.0335409567 1.5568677397 -0.6414369134	  C3      1    UNL1	  0.396222
      48     C	 0.9835409567 1.5568677397 -0.6414369134	  C3      1    UNL1	  0.191636
      49     C	 0.4585409567 0.6475410657 -0.6414369134	  C3      1    UNL1	  0.089344
      50     C	 -1.6903427281 -3.2979171006 -1.2359181967	  C3      1    UNL1	 -0.272212
      51     C	 -0.5863073926 -3.6566399264 -1.2359181967	  C3      1    UNL1	 -0.094419
      52     C	 -2.3928725821 -3.2639625924 -2.0759181967	  C3      1    UNL1	 -0.385348
      53     C	 -1.6903427281 -4.1012050699 -2.0759181967	  C3      1    UNL1	 -0.272212
      54     C	 -0.6140045465 -4.2909925316 -2.0759181967	  C3      1    UNL1	 -0.098879
      55     C	 0.3325113654 -3.7445213151 -2.0759181967	  C3      1    UNL1	  0.064788
      56     C	 0.7063196930 -2.7174913759 -3.1142152978	  C3      1    UNL1	  0.137622
      57     C	 -2.3928725821 -2.1710201594 -3.1142152978	  C3      1    UNL1	 -0.385348
      58     C	 -2.3928725821 -3.2639625924 -3.1142152978	  C3      1    UNL1	 -0.385348
      59     C	 -1.6903427281 -4.1012050699 -3.1142152978	  C3      1    UNL1	 -0.272212
      60     C	 -0.6140045465 -4.2909925316 -3.1142152978	  C3      1    UNL1	 -0.098879
      61     C	 0.3325113654 -3.7445213151 -3.1142152978	  C3      1    UNL1	  0.064788
      62     C	 0.0960239695 -2.7174913759 -3.9542152978	  C3      1    UNL1	  0.018710
      63     C	 -0.5863073926 -1.7783428253 -3.9542152978	  C3      1    UNL1	 -0.094419
      64     C	 -1.6903427281 -2.1370656512 -3.9542152978	  C3      1    UNL1	 -0.272212
      65     C	 -1.6903427281 -3.2979171006 -3.9542152978	  C3      1    UNL1	 -0.272212
      66     C	 -0.5863073926 -3.6566399264 -3.9542152978	  C3      1    UNL1	 -0.094419
      67     C	 -0.8914552544 -2.7174913759 -4.2750667472	  C3      1    UNL1	 -0.143560
      68     C	 -4.6687090795 1.1337668204 0.3022794541	  C3      1    UNL1	 -0.751847
      69     C	 -4.6687090795 -0.0270846291 0.3022794541	  C3      1    UNL1	 -0.751847
      70     C	 -3.5923708979 2.1268422514 -0.5377205459	  C3      1    UNL1	 -0.578514
      71     C	 -4.6687090795 1.9370547896 -0.5377205459	  C3      1    UNL1	 -0.751847
      72     C	 -5.3712389335 1.0998123122 -0.5377205459	  C3      1    UNL1	 -0.864983
      73     C	 -5.3712389335 0.0068698791 -0.5377205459	  C3      1    UNL1	 -0.864983
      74     C	 -4.6687090795 -0.8303725983 -0.5377205459	  C3      1    UNL1	 -0.751847
      75     C	 -3.5923708979 2.1268422514 -1.5760176470	  C3      1    UNL1	 -0.578514
      76     C	 -4.6687090795 1.9370547896 -1.5760176470	  C3      1    UNL1	 -0.751847
      77     C	 -5.3712389335 1.0998123122 -1.5760176470	  C3      1    UNL1	 -0.864983
      78     C	 -5.3712389335 0.0068698791 -1.5760176470	  C3      1    UNL1	 -0.864983
      79     C	 -4.6687090795 -0.8303725983 -1.5760176470	  C3      1    UNL1	 -0.751847
      80     C	 -3.5923708979 -1.0201600601 -1.5760176470	  C3      1    UNL1	 -0.578514
      81     C	 -3.5646737440 1.4924896462 -2.4160176470	  C3      1    UNL1	 -0.574054
      82     C	 -4.6687090795 1.1337668204 -2.4160176470	  C3      1    UNL1	 -0.751847
      83     C	 -4.6687090795 -0.0270846291 -2.4160176470	  C3      1    UNL1	 -0.751847
      84     C	 -3.5646737440 -0.3858074549 -2.4160176470	  C3      1    UNL1	 -0.574054
      85     C	 -3.8698216058 0.5533410957 -2.7368690965	  C3      1    UNL1	 -0.623195
      86     C	 -1.2009923945 3.1053040469 4.1444234352	  C3      1    UNL1	 -0.193407
      87     C	 -0.2135131707 3.1053040469 3.8235719857	  C3      1    UNL1	 -0.034384
      88     C	 -0.8958445328 4.0444525974 3.8235719857	  C3      1    UNL1	 -0.144267
      89     C	 -1.9998798682 3.6857297716 3.8235719857	  C3      1    UNL1	 -0.322060
      90     C	 -1.9998798682 2.5248783221 3.8235719857	  C3      1    UNL1	 -0.322060
      91     C	 -0.8958445328 2.1661554963 3.8235719857	  C3      1    UNL1	 -0.144267
      92     C	 0.3967825528 3.1053040469 2.9835719857	  C3      1    UNL1	  0.077311
      93     C	 0.0229742253 4.1323339861 2.9835719857	  C3      1    UNL1	  0.004476
      94     C	 -0.9235416866 4.6788052026 2.9835719857	  C3      1    UNL1	 -0.148727
      95     C	 -1.9998798682 4.4890177408 2.9835719857	  C3      1    UNL1	 -0.322060
      96     C	 -2.7024097223 3.6517752634 2.9835719857	  C3      1    UNL1	 -0.435195
      97     C	 -2.7024097223 2.5588328304 2.9835719857	  C3      1    UNL1	 -0.435195
      98     C	 -1.9998798682 1.7215903529 2.9835719857	  C3      1    UNL1	 -0.322060
      99     C	 0.0229742253 4.1323339861 1.9452748846	  C3      1    UNL1	  0.004476
     100     C	 -0.9235416866 4.6788052026 1.9452748846	  C3      1    UNL1	 -0.148727
     101     C	 -1.9998798682 4.4890177408 1.9452748846	  C3      1    UNL1	 -0.322060
     102     C	 -2.7024097223 3.6517752634 1.9452748846	  C3      1    UNL1	 -0.435195
     103     C	 -2.7024097223 2.5588328304 1.9452748846	  C3      1    UNL1	 -0.435195
     104     C	 -0.8958445328 4.0444525974 1.1052748846	  C3      1    UNL1	 -0.144267
     105     C	 -1.9998798682 3.6857297716 1.1052748846	  C3      1    UNL1	 -0.322060
     106     C	 2.7925010073 0.9341849258 3.9585802851	  C3      1    UNL1	  0.544100
     107     C	 3.7799802312 0.9341849258 3.6377288356	  C3      1    UNL1	  0.736504
     108     C	 3.0976488691 1.8733334764 3.6377288356	  C3      1    UNL1	  0.603556
     109     C	 1.9936135337 1.5146106506 3.6377288356	  C3      1    UNL1	  0.388442
     110     C	 1.9936135337 0.3537592011 3.6377288356	  C3      1    UNL1	  0.388442
     111     C	 3.0976488691 -0.0049636247 3.6377288356	  C3      1    UNL1	  0.603556
     112     C	 4.3902759547 0.9341849258 2.7977288356	  C3      1    UNL1	  0.855416
     113     C	 4.0164676271 1.9612148651 2.7977288356	  C3      1    UNL1	  0.782582
     114     C	 3.0699517153 2.5076860816 2.7977288356	  C3      1    UNL1	  0.598160
     115     C	 1.9936135337 2.3178986198 2.7977288356	  C3      1    UNL1	  0.388442
     116     C	 3.0699517153 -0.6393162299 2.7977288356	  C3      1    UNL1	  0.598160
     117     C	 4.0164676271 -0.0928450134 2.7977288356	  C3      1    UNL1	  0.782582
     118     C	 4.3902759547 0.9341849258 1.7594317345	  C3      1    UNL1	  0.855416
     119     C	 4.0164676271 1.9612148651 1.7594317345	  C3      1    UNL1	  0.782582
     120     C	 3.0699517153 2.5076860816 1.7594317345	  C3      1    UNL1	  0.598160
     121     C	 3.0699517153 -0.6393162299 1.7594317345	  C3      1    UNL1	  0.598160
     122     C	 4.0164676271 -0.0928450134 1.7594317345	  C3      1    UNL1	  0.782582
     123     C	 3.7799802312 0.9341849258 0.9194317345	  C3      1    UNL1	  0.736504
     124     C	 0.2693590457 1.7137135062 2.9590083325	  C3      1    UNL1	  0.052483
     125     C	 -1.3056409543 0.8043868322 2.9590083325	  C3      1    UNL1	 -0.210260
     126     C	 -0.2556409543 0.8043868322 2.9590083325	  C3      1    UNL1	 -0.041168
     127     C	 0.7493075996 2.6969517389 2.1903549846	  C3      1    UNL1	  0.145998
     128     C	 -2.5256260631 1.2013396485 2.1903549846	  C3      1    UNL1	 -0.406726
     129     C	 -1.9716056206 0.3392670126 2.1903549846	  C3      1    UNL1	 -0.317507
     130     C	 -1.0394623114 -0.0864285729 2.1903549846	  C3      1    UNL1	 -0.167395
     131     C	 0.4122950138 3.4419796246 1.1403549846	  C3      1    UNL1	  0.080333
     132     C	 -2.3525135255 3.1062710885 1.1403549846	  C3      1    UNL1	 -0.378848
     133     C	 -2.8196187709 2.2162764012 1.1403549846	  C3      1    UNL1	 -0.454071
     134     C	 -0.5275139258 -0.3709751294 1.1403549846	  C3      1    UNL1	 -0.084951
     135     C	 0.7493075996 2.6969517389 0.0903549846	  C3      1    UNL1	  0.145998
     136     C	 -0.0251450502 3.3680187800 0.0903549846	  C3      1    UNL1	 -0.004049
     137     C	 -1.0394623114 3.5138555853 0.0903549846	  C3      1    UNL1	 -0.167395
     138     C	 -1.9716056206 3.0881599998 0.0903549846	  C3      1    UNL1	 -0.317507
     139     C	 0.2693590457 1.7137135062 -0.6782983634	  C3      1    UNL1	  0.052483
     140     C	 -0.2556409543 2.6230401802 -0.6782983634	  C3      1    UNL1	 -0.041168
     141     C	 -1.3056409543 2.6230401802 -0.6782983634	  C3      1    UNL1	 -0.210260
     142     C	 -3.2277368350 0.3737426556 1.2365034217	  C3      1    UNL1	 -0.519794
     143     C	 -2.7027368350 -0.5355840184 1.2365034217	  C3      1    UNL1	 -0.435248
     144     C	 -1.6527368350 -0.5355840184 1.2365034217	  C3      1    UNL1	 -0.266156
     145     C	 -3.3687015012 1.7481891492 0.4678500737	  C3      1    UNL1	 -0.542495
     146     C	 -3.3687015012 -1.0007038380 0.4678500737	  C3      1    UNL1	 -0.542495
     147     C	 -2.4365581921 -1.4263994236 0.4678500737	  C3      1    UNL1	 -0.392383
     148     C	 -1.4222409308 -1.2805626182 0.4678500737	  C3      1    UNL1	 -0.229037
     149     C	 -0.6477882810 -0.6094955771 0.4678500737	  C3      1    UNL1	 -0.104320
     150     C	 -0.0777368350 0.3737426556 -0.5821499263	  C3      1    UNL1	 -0.012519
     151     C	 -1.9246098065 2.4584312912 -0.5821499263	  C3      1    UNL1	 -0.309939
     152     C	 -2.9224070978 2.3372767652 -0.5821499263	  C3      1    UNL1	 -0.470624
     153     C	 -2.9224070978 -1.5897914541 -0.5821499263	  C3      1    UNL1	 -0.470624
     154     C	 -0.6477882810 1.3569808883 -1.6321499263	  C3      1    UNL1	 -0.104320
     155     C	 -1.4222409308 2.0280479293 -1.6321499263	  C3      1    UNL1	 -0.229037
     156     C	 -2.4365581921 2.1738847347 -1.6321499263	  C3      1    UNL1	 -0.392383
     157     C	 -3.3687015012 -1.0007038380 -1.6321499263	  C3      1    UNL1	 -0.542495
     158     C	 -1.1277368350 0.3737426556 -2.4008032742	  C3      1    UNL1	 -0.181610
     159     C	 -1.6527368350 1.2830693295 -2.4008032742	  C3      1    UNL1	 -0.266156
     160     C	 -2.7027368350 1.2830693295 -2.4008032742	  C3      1    UNL1	 -0.435248
     161     C	 -2.7027368350 -0.5355840184 -2.4008032742	  C3      1    UNL1	 -0.435248
     162     C	 -2.1777368350 0.3737426556 -2.6821499263	  C3      1    UNL1	 -0.350702
     163     C	 -0.5424521342 -1.4553068653 0.5841546333	  C3      1    UNL1	 -0.087356
     164     C	 -1.5924521342 -1.4553068653 0.3028079812	  C3      1    UNL1	 -0.256448
     165     C	 -1.0674521342 -2.3646335393 0.3028079812	  C3      1    UNL1	 -0.171902
     166     C	 -0.0174521342 -2.3646335393 0.3028079812	  C3      1    UNL1	 -0.002810
     167     C	 0.2130437700 0.1989984085 -0.4658453667	  C3      1    UNL1	  0.041510
     168     C	 -2.2874372430 -1.9676807230 -0.4658453667	  C3      1    UNL1	 -0.368368
     169     C	 -1.7334168005 -2.8297533589 -0.4658453667	  C3      1    UNL1	 -0.279149
     170     C	 -0.8012734913 -3.2554489444 -0.4658453667	  C3      1    UNL1	 -0.129037
     171     C	 0.2130437700 -3.1096121390 -0.4658453667	  C3      1    UNL1	  0.041510
     172     C	 0.6504838339 0.2729592531 -1.5158453667	  C3      1    UNL1	  0.126742
     173     C	 -0.2893251057 0.6293817703 -1.5158453667	  C3      1    UNL1	 -0.046593
     174     C	 -2.5814299508 -1.9578697603 -1.5158453667	  C3      1    UNL1	 -0.415713
     175     C	 0.6504838339 -3.1835729837 -1.5158453667	  C3      1    UNL1	  0.126742
     176     C	 1.2762012137 -1.4553068653 -2.5658453667	  C3      1    UNL1	  0.248659
     177     C	 0.9874964197 -0.4720686326 -2.5658453667	  C3      1    UNL1	  0.192407
     178     C	 0.2130437700 0.1989984085 -2.5658453667	  C3      1    UNL1	  0.041510
     179     C	 -0.8012734913 0.3448352138 -2.5658453667	  C3      1    UNL1	 -0.129037
     180     C	 -2.2874372430 -0.9429330076 -2.5658453667	  C3      1    UNL1	 -0.368368
     181     C	 0.9874964197 -2.4385450980 -2.5658453667	  C3      1    UNL1	  0.192407
     182     C	 0.5075478658 -1.4553068653 -3.3344987147	  C3      1    UNL1	  0.098892
     183     C	 -0.0174521342 -0.5459801913 -3.3344987147	  C3      1    UNL1	 -0.002810
     184     C	 -1.0674521342 -0.5459801913 -3.3344987147	  C3      1    UNL1	 -0.171902
     185     C	 1.1989847999 -2.2260461021 1.7272371968	  C3      1    UNL1	  0.233614
     186     C	 2.2403057738 -2.2260461021 1.7272371968	  C3      1    UNL1	  0.436509
     187     C	 3.5960408448 -1.3242356852 1.0612874383	  C3      1    UNL1	  0.700665
     188     C	 -0.0807430667 -1.8528774034 1.0612874383	  C3      1    UNL1	 -0.013003
     189     C	 0.4908675146 -2.7423208295 1.0612874383	  C3      1    UNL1	  0.095642
     190     C	 1.4526063565 -3.1815322419 1.0612874383	  C3      1    UNL1	  0.283031
     191     C	 2.4991281719 -3.0310651207 1.0612874383	  C3      1    UNL1	  0.486938
     192     C	 3.2981696789 -2.3386917135 1.0612874383	  C3      1    UNL1	  0.642627
     193     C	 4.0594722761 -1.3242356852 0.0989621553	  C3      1    UNL1	  0.790961
     194     C	 3.8277565604 -0.3090228023 0.0989621553	  C3      1    UNL1	  0.745813
     195     C	 0.2607870209 -3.1535860889 0.0989621553	  C3      1    UNL1	  0.050813
     196     C	 1.1989847999 -3.6053983267 0.0989621553	  C3      1    UNL1	  0.233614
     197     C	 2.2403057738 -3.6053983267 0.0989621553	  C3      1    UNL1	  0.436509
     198     C	 3.1785035527 -3.1535860889 0.0989621553	  C3      1    UNL1	  0.619310
     199     C	 3.8277565604 -2.3394485682 0.0989621553	  C3      1    UNL1	  0.745813
     200     C	 4.0594722761 -1.3242356852 -0.9691383277	  C3      1    UNL1	  0.790961
     201     C	 3.8277565604 -0.3090228023 -0.9691383277	  C3      1    UNL1	  0.745813
     202     C	 3.1785035527 0.5051147185 -0.9691383277	  C3      1    UNL1	  0.619310
     203     C	 1.1989847999 -3.6053983267 -0.9691383277	  C3      1    UNL1	  0.233614
     204     C	 2.2403057738 -3.6053983267 -0.9691383277	  C3      1    UNL1	  0.436509
     205     C	 3.1785035527 -3.1535860889 -0.9691383277	  C3      1    UNL1	  0.619310
     206     C	 3.8277565604 -2.3394485682 -0.9691383277	  C3      1    UNL1	  0.745813
     207     C	 3.5960408448 -1.3242356852 -1.9314636107	  C3      1    UNL1	  0.700665
     208     C	 3.2981696789 -0.3097796569 -1.9314636107	  C3      1    UNL1	  0.642627
     209     C	 2.4991281719 0.3825937502 -1.9314636107	  C3      1    UNL1	  0.486938
     210     C	 1.4526063565 0.5330608714 -1.9314636107	  C3      1    UNL1	  0.283031
     211     C	 1.4526063565 -3.1815322419 -1.9314636107	  C3      1    UNL1	  0.283031
     212     C	 2.4991281719 -3.0310651207 -1.9314636107	  C3      1    UNL1	  0.486938
     213     C	 3.2981696789 -2.3386917135 -1.9314636107	  C3      1    UNL1	  0.642627
     214     C	 2.7609662607 -1.3242356852 -2.5974133692	  C3      1    UNL1	  0.537956
     215     C	 2.2403057738 -0.4224252684 -2.5974133692	  C3      1    UNL1	  0.436509
     216     C	 2.2403057738 -2.2260461021 -2.5974133692	  C3      1    UNL1	  0.436509
     217     C	 1.7196452868 -1.3242356852 -2.8350880862	  C3      1    UNL1	  0.335061
     218     C	 0.9878804698 1.5493514826 3.3395417175	  C3      1    UNL1	  0.192482
     219     C	 0.4672199829 0.6475410657 3.3395417175	  C3      1    UNL1	  0.091035
     220     C	 0.9878804698 -0.2542693512 3.3395417175	  C3      1    UNL1	  0.192482
     221     C	 1.2415020264 2.5048376224 2.6735919590	  C3      1    UNL1	  0.241898
     222     C	 0.2797631845 -0.7705440785 2.6735919590	  C3      1    UNL1	  0.054510
     223     C	 1.2415020264 -1.2097554910 2.6735919590	  C3      1    UNL1	  0.241898
     224     C	 2.2880238418 -1.0592883697 2.6735919590	  C3      1    UNL1	  0.445806
     225     C	 2.0292014437 2.9287037072 1.7112666761	  C3      1    UNL1	  0.395376
     226     C	 0.0496826908 -1.1818093380 1.7112666761	  C3      1    UNL1	  0.009680
     227     C	 2.9673992226 -1.1818093380 1.7112666761	  C3      1    UNL1	  0.578178
     228     C	 3.8483679460 0.6475410657 0.6431661931	  C3      1    UNL1	  0.749829
     229     C	 3.6166522303 1.6627539487 0.6431661931	  C3      1    UNL1	  0.704681
     230     C	 2.9673992226 2.4768914694 0.6431661931	  C3      1    UNL1	  0.578178
     231     C	 2.0292014437 2.9287037072 0.6431661931	  C3      1    UNL1	  0.395376
     232     C	 3.3849365147 0.6475410657 -0.3191590899	  C3      1    UNL1	  0.659532
     233     C	 3.0870653488 1.6619970940 -0.3191590899	  C3      1    UNL1	  0.601494
     234     C	 2.2880238418 2.3543705011 -0.3191590899	  C3      1    UNL1	  0.445806
     235     C	 1.2415020264 2.5048376224 -0.3191590899	  C3      1    UNL1	  0.241898
     236     C	 2.0292014437 1.5493514826 -0.9851088484	  C3      1    UNL1	  0.395376
     237     C	 0.9878804698 1.5493514826 -0.9851088484	  C3      1    UNL1	  0.192482
     238     C	 -2.2366634513 -3.6948423400 -1.6350667472	  C3      1    UNL1	 -0.360192
     239     C	 -1.4052790637 -4.2988784547 -1.6350667472	  C3      1    UNL1	 -0.226306
     240     C	 -0.3776314451 -4.2988784547 -1.6350667472	  C3      1    UNL1	 -0.060814
     241     C	 0.4537529425 -3.6948423400 -1.6350667472	  C3      1    UNL1	  0.088411
     242     C	 -2.8114552544 -2.7174913759 -2.5950667472	  C3      1    UNL1	 -0.452756
     243     C	 -2.5542240297 -3.6774913759 -2.5950667472	  C3      1    UNL1	 -0.411331
     244     C	 -1.8514552544 -4.3802601512 -2.5950667472	  C3      1    UNL1	 -0.298158
     245     C	 -0.8914552544 -4.6374913759 -2.5950667472	  C3      1    UNL1	 -0.143560
     246     C	 0.0685447456 -4.3802601512 -2.5950667472	  C3      1    UNL1	  0.013356
     247     C	 0.7713135209 -3.6774913759 -2.5950667472	  C3      1    UNL1	  0.150285
     248     C	 0.7713135209 -2.7174913759 -3.5550667472	  C3      1    UNL1	  0.150285
     249     C	 -2.2366634513 -1.7401404118 -3.5550667472	  C3      1    UNL1	 -0.360192
     250     C	 -2.5542240297 -2.7174913759 -3.5550667472	  C3      1    UNL1	 -0.411331
     251     C	 -2.2366634513 -3.6948423400 -3.5550667472	  C3      1    UNL1	 -0.360192
     252     C	 -1.4052790637 -4.2988784547 -3.5550667472	  C3      1    UNL1	 -0.226306
     253     C	 -0.3776314451 -4.2988784547 -3.5550667472	  C3      1    UNL1	 -0.060814
     254     C	 0.4537529425 -3.6948423400 -3.5550667472	  C3      1    UNL1	  0.088411
     255     C	 0.0685447456 -2.7174913759 -4.2578355225	  C3      1    UNL1	  0.013356
     256     C	 -0.4114552544 -1.8861069883 -4.2578355225	  C3      1    UNL1	 -0.066261
     257     C	 -1.3714552544 -1.8861069883 -4.2578355225	  C3      1    UNL1	 -0.220859
     258     C	 -1.8514552544 -2.7174913759 -4.2578355225	  C3      1    UNL1	 -0.298158
     259     C	 -1.3714552544 -3.5488757635 -4.2578355225	  C3      1    UNL1	 -0.220859
     260     C	 -0.4114552544 -3.5488757635 -4.2578355225	  C3      1    UNL1	 -0.066261
     261     C	 -0.8914552544 -2.7174913759 -4.5150667472	  C3      1    UNL1	 -0.143560
     262     C	 -4.3498216058 1.3847254833 0.6058996788	  C3      1    UNL1	 -0.700494
     263     C	 -4.8298216058 0.5533410957 0.6058996788	  C3      1    UNL1	 -0.777793
     264     C	 -4.3498216058 -0.2780432920 0.6058996788	  C3      1    UNL1	 -0.700494
     265     C	 -4.3836454151 2.1347281745 -0.0968690965	  C3      1    UNL1	 -0.705941
     266     C	 -5.2150298027 1.5306920597 -0.0968690965	  C3      1    UNL1	 -0.839827
     267     C	 -5.5325903811 0.5533410957 -0.0968690965	  C3      1    UNL1	 -0.890967
     268     C	 -5.2150298027 -0.4240098684 -0.0968690965	  C3      1    UNL1	 -0.839827
     269     C	 -4.3836454151 -1.0280459832 -0.0968690965	  C3      1    UNL1	 -0.705941
     270     C	 -3.8698216058 2.4733410957 -1.0568690965	  C3      1    UNL1	 -0.623195
     271     C	 -4.8298216058 2.2161098709 -1.0568690965	  C3      1    UNL1	 -0.777793
     272     C	 -5.5325903811 1.5133410957 -1.0568690965	  C3      1    UNL1	 -0.890967
     273     C	 -5.7898216058 0.5533410957 -1.0568690965	  C3      1    UNL1	 -0.932391
     274     C	 -5.5325903811 -0.4066589043 -1.0568690965	  C3      1    UNL1	 -0.890967
     275     C	 -4.8298216058 -1.1094276796 -1.0568690965	  C3      1    UNL1	 -0.777793
     276     C	 -3.8698216058 -1.3666589043 -1.0568690965	  C3      1    UNL1	 -0.623195
     277     C	 -3.3559977965 2.1347281745 -2.0168690965	  C3      1    UNL1	 -0.540449
     278     C	 -4.3836454151 2.1347281745 -2.0168690965	  C3      1    UNL1	 -0.705941
     279     C	 -5.2150298027 1.5306920597 -2.0168690965	  C3      1    UNL1	 -0.839827
     280     C	 -5.5325903811 0.5533410957 -2.0168690965	  C3      1    UNL1	 -0.890967
     281     C	 -5.2150298027 -0.4240098684 -2.0168690965	  C3      1    UNL1	 -0.839827
     282     C	 -4.3836454151 -1.0280459832 -2.0168690965	  C3      1    UNL1	 -0.705941
     283     C	 -3.3898216058 1.3847254833 -2.7196378718	  C3      1    UNL1	 -0.545896
     284     C	 -4.3498216058 1.3847254833 -2.7196378718	  C3      1    UNL1	 -0.700494
     285     C	 -4.8298216058 0.5533410957 -2.7196378718	  C3      1    UNL1	 -0.777793
     286     C	 -4.3498216058 -0.2780432920 -2.7196378718	  C3      1    UNL1	 -0.700494
     287     C	 -3.3898216058 -0.2780432920 -2.7196378718	  C3      1    UNL1	 -0.545896
     288     C	 -3.8698216058 0.5533410957 -2.9768690965	  C3      1    UNL1	 -0.623195
     289     C	 -1.2009923945 3.1053040469 4.3844234352	  C3      1    UNL1	 -0.193407
     290     C	 -0.2409923945 3.1053040469 4.1271922104	  C3      1    UNL1	 -0.038809
     291     C	 -0.7209923945 3.9366884345 4.1271922104	  C3      1    UNL1	 -0.116108
     292     C	 -1.6809923945 3.9366884345 4.1271922104	  C3      1    UNL1	 -0.270706
     293     C	 -2.1609923945 3.1053040469 4.1271922104	  C3      1    UNL1	 -0.348005
     294     C	 -1.6809923945 2.2739196592 4.1271922104	  C3      1    UNL1	 -0.270706
     295     C	 -0.7209923945 2.2739196592 4.1271922104	  C3      1    UNL1	 -0.116108
     296     C	 0.4617763807 3.1053040469 3.4244234352	  C3      1    UNL1	  0.089974
     297     C	 0.1442158024 4.0826550109 3.4244234352	  C3      1    UNL1	  0.028100
     298     C	 -0.6871685853 4.6866911257 3.4244234352	  C3      1    UNL1	 -0.110661
     299     C	 -1.7148162038 4.6866911257 3.4244234352	  C3      1    UNL1	 -0.276153
     300     C	 -2.5462005914 4.0826550109 3.4244234352	  C3      1    UNL1	 -0.410039
     301     C	 -2.8637611698 3.1053040469 3.4244234352	  C3      1    UNL1	 -0.461179
     302     C	 -2.5462005914 2.1279530828 3.4244234352	  C3      1    UNL1	 -0.410039
     303     C	 -1.7148162038 1.5239169680 3.4244234352	  C3      1    UNL1	 -0.276153
     304     C	 0.1442158024 2.1279530828 3.4244234352	  C3      1    UNL1	  0.028100
     305     C	 0.7190076055 3.1053040469 2.4644234352	  C3      1    UNL1	  0.140094
     306     C	 0.4617763807 4.0653040469 2.4644234352	  C3      1    UNL1	  0.089974
     307     C	 -0.2409923945 4.7680728221 2.4644234352	  C3      1    UNL1	 -0.038809
     308     C	 -1.2009923945 5.0253040469 2.4644234352	  C3      1    UNL1	 -0.193407
     309     C	 -2.1609923945 4.7680728221 2.4644234352	  C3      1    UNL1	 -0.348005
     310     C	 -2.8637611698 4.0653040469 2.4644234352	  C3      1    UNL1	 -0.461179
     311     C	 -3.1209923945 3.1053040469 2.4644234352	  C3      1    UNL1	 -0.502604
     312     C	 -2.8637611698 2.1453040469 2.4644234352	  C3      1    UNL1	 -0.461179
     313     C	 0.1442158024 4.0826550109 1.5044234352	  C3      1    UNL1	  0.028100
     314     C	 -0.6871685853 4.6866911257 1.5044234352	  C3      1    UNL1	 -0.110661
     315     C	 -1.7148162038 4.6866911257 1.5044234352	  C3      1    UNL1	 -0.276153
     316     C	 -2.5462005914 4.0826550109 1.5044234352	  C3      1    UNL1	 -0.410039
     317     C	 -2.8637611698 3.1053040469 1.5044234352	  C3      1    UNL1	 -0.461179
     318     C	 -1.6809923945 3.9366884345 0.8016546599	  C3      1    UNL1	 -0.270706
     319     C	 2.7925010073 0.9341849258 4.1985802851	  C3      1    UNL1	  0.544100
     320     C	 3.7525010073 0.9341849258 3.9413490604	  C3      1    UNL1	  0.731150
     321     C	 3.2725010073 1.7655693135 3.9413490604	  C3      1    UNL1	  0.637625
     322     C	 2.3125010073 1.7655693135 3.9413490604	  C3      1    UNL1	  0.450575
     323     C	 1.8325010073 0.9341849258 3.9413490604	  C3      1    UNL1	  0.357051
     324     C	 2.3125010073 0.1028005382 3.9413490604	  C3      1    UNL1	  0.450575
     325     C	 3.2725010073 0.1028005382 3.9413490604	  C3      1    UNL1	  0.637625
     326     C	 4.4552697826 0.9341849258 3.2385802851	  C3      1    UNL1	  0.868080
     327     C	 4.1377092043 1.9115358899 3.2385802851	  C3      1    UNL1	  0.806205
     328     C	 3.3063248166 2.5155720046 3.2385802851	  C3      1    UNL1	  0.644215
     329     C	 2.2786771981 2.5155720046 3.2385802851	  C3      1    UNL1	  0.443985
     330     C	 1.4472928104 1.9115358899 3.2385802851	  C3      1    UNL1	  0.281995
     331     C	 2.2786771981 -0.6472021530 3.2385802851	  C3      1    UNL1	  0.443985
     332     C	 3.3063248166 -0.6472021530 3.2385802851	  C3      1    UNL1	  0.644215
     333     C	 4.1377092043 -0.0431660382 3.2385802851	  C3      1    UNL1	  0.806205
     334     C	 4.7125010073 0.9341849258 2.2785802851	  C3      1    UNL1	  0.918199
     335     C	 4.4552697826 1.8941849258 2.2785802851	  C3      1    UNL1	  0.868080
     336     C	 3.7525010073 2.5969537011 2.2785802851	  C3      1    UNL1	  0.731150
     337     C	 2.7925010073 2.8541849258 2.2785802851	  C3      1    UNL1	  0.544100
     338     C	 3.7525010073 -0.7285838494 2.2785802851	  C3      1    UNL1	  0.731150
     339     C	 4.4552697826 -0.0258150742 2.2785802851	  C3      1    UNL1	  0.868080
     340     C	 4.4552697826 0.9341849258 1.3185802851	  C3      1    UNL1	  0.868080
     341     C	 4.1377092043 1.9115358899 1.3185802851	  C3      1    UNL1	  0.806205
     342     C	 3.3063248166 2.5155720046 1.3185802851	  C3      1    UNL1	  0.644215
     343     C	 4.1377092043 -0.0431660382 1.3185802851	  C3      1    UNL1	  0.806205
     344     C	 0.2606800195 1.7137135062 3.3026802675	  C3      1    UNL1	  0.050792
     345     C	 -1.3013014413 0.8119030893 3.3026802675	  C3      1    UNL1	 -0.209561
     346     C	 -0.2599804674 0.8119030893 3.3026802675	  C3      1    UNL1	 -0.041867
     347     C	 0.7978834378 2.7281695345 2.6367305090	  C3      1    UNL1	  0.155462
     348     C	 -2.5810293079 1.1850717880 2.6367305090	  C3      1    UNL1	 -0.415648
     349     C	 -2.0094187266 0.2956283620 2.6367305090	  C3      1    UNL1	 -0.323596
     350     C	 -1.0476798847 -0.1435830505 2.6367305090	  C3      1    UNL1	 -0.168718
     351     C	 0.6782173116 3.5430639099 1.6744052260	  C3      1    UNL1	  0.132146
     352     C	 -3.1204679436 1.7137135062 1.6744052260	  C3      1    UNL1	 -0.502519
     353     C	 -1.3013014413 -0.5674491353 1.6744052260	  C3      1    UNL1	 -0.209561
     354     C	 0.6782173116 3.5430639099 0.6063047431	  C3      1    UNL1	  0.132146
     355     C	 -0.2599804674 3.9948761477 0.6063047431	  C3      1    UNL1	 -0.041867
     356     C	 -1.3013014413 3.9948761477 0.6063047431	  C3      1    UNL1	 -0.209561
     357     C	 -2.2394992202 3.5430639099 0.6063047431	  C3      1    UNL1	 -0.360648
     358     C	 -2.8887522279 2.7289263892 0.6063047431	  C3      1    UNL1	 -0.465204
     359     C	 0.7978834378 2.7281695345 -0.3560205399	  C3      1    UNL1	  0.155462
     360     C	 -0.0011580692 3.4205429416 -0.3560205399	  C3      1    UNL1	 -0.000186
     361     C	 -1.0476798847 3.5710100629 -0.3560205399	  C3      1    UNL1	 -0.168718
     362     C	 -2.0094187266 3.1317986504 -0.3560205399	  C3      1    UNL1	 -0.323596
     363     C	 0.2606800195 1.7137135062 -1.0219702984	  C3      1    UNL1	  0.050792
     364     C	 -0.2599804674 2.6155239231 -1.0219702984	  C3      1    UNL1	 -0.041867
     365     C	 -1.3013014413 2.6155239231 -1.0219702984	  C3      1    UNL1	 -0.209561
     366     C	 -3.2190578089 0.3737426556 1.5801753567	  C3      1    UNL1	 -0.518396
     367     C	 -2.6983973219 -0.5280677613 1.5801753567	  C3      1    UNL1	 -0.434549
     368     C	 -1.6570763481 -0.5280677613 1.5801753567	  C3      1    UNL1	 -0.266855
     369     C	 -3.4065146072 1.7918277998 0.9142255982	  C3      1    UNL1	 -0.548584
     370     C	 -3.9781251886 0.9023843737 0.9142255982	  C3      1    UNL1	 -0.640636
     371     C	 -3.9781251886 -0.1548990626 0.9142255982	  C3      1    UNL1	 -0.640636
     372     C	 -3.4065146072 -1.0443424887 0.9142255982	  C3      1    UNL1	 -0.548584
     373     C	 -2.4447757654 -1.4835539011 0.9142255982	  C3      1    UNL1	 -0.393706
     374     C	 -1.3982539499 -1.3330867799 0.9142255982	  C3      1    UNL1	 -0.225174
     375     C	 -2.6983973219 2.6549052970 -0.0480996848	  C3      1    UNL1	 -0.434549
     376     C	 -3.6365951009 2.2030930593 -0.0480996848	  C3      1    UNL1	 -0.585636
     377     C	 -3.6365951009 -1.4556077481 -0.0480996848	  C3      1    UNL1	 -0.585636
     378     C	 -2.6983973219 -1.9074199859 -0.0480996848	  C3      1    UNL1	 -0.434549
     379     C	 -1.6570763481 2.6549052970 -1.1162001678	  C3      1    UNL1	 -0.266855
     380     C	 -2.6983973219 2.6549052970 -1.1162001678	  C3      1    UNL1	 -0.434549
     381     C	 -3.6365951009 -1.4556077481 -1.1162001678	  C3      1    UNL1	 -0.585636
     382     C	 -0.5992124429 1.3881986839 -2.0785254507	  C3      1    UNL1	 -0.096497
     383     C	 -1.3982539499 2.0805720910 -2.0785254507	  C3      1    UNL1	 -0.225174
     384     C	 -2.4447757654 2.2310392122 -2.0785254507	  C3      1    UNL1	 -0.393706
     385     C	 -3.4065146072 -1.0443424887 -2.0785254507	  C3      1    UNL1	 -0.548584
     386     C	 -1.6570763481 1.2755530724 -2.7444752092	  C3      1    UNL1	 -0.266855
     387     C	 -2.6983973219 1.2755530724 -2.7444752092	  C3      1    UNL1	 -0.434549
     388     C	 -2.6983973219 -0.5280677613 -2.7444752092	  C3      1    UNL1	 -0.434549
     389     C	 -2.1777368350 0.3737426556 -2.9821499263	  C3      1    UNL1	 -0.350702
     390     C	 -0.5424521342 -1.4553068653 0.8841546333	  C3      1    UNL1	 -0.087356
     391     C	 -1.0631126212 -2.3571172822 0.6464799163	  C3      1    UNL1	 -0.171203
     392     C	 -2.3428404878 -1.9839485835 -0.0194698422	  C3      1    UNL1	 -0.377290
     393     C	 -1.7712299065 -2.8733920095 -0.0194698422	  C3      1    UNL1	 -0.285238
     394     C	 -0.8094910646 -3.3126034220 -0.0194698422	  C3      1    UNL1	 -0.130360
     395     C	 -2.6505634078 -2.4705197483 -0.9817951252	  C3      1    UNL1	 -0.426846
     396     C	 -2.0013104001 -3.2846572690 -0.9817951252	  C3      1    UNL1	 -0.322290
     397     C	 -0.0217916473 -3.7364695068 -0.9817951252	  C3      1    UNL1	 -0.003509
     398     C	 0.9164061317 0.3740435384 -2.0498956082	  C3      1    UNL1	  0.178556
     399     C	 -0.0217916473 0.8258557762 -2.0498956082	  C3      1    UNL1	 -0.003509
     400     C	 -2.8822791235 -1.4553068653 -2.0498956082	  C3      1    UNL1	 -0.464161
     401     C	 0.9164061317 -3.2846572690 -2.0498956082	  C3      1    UNL1	  0.178556
     402     C	 1.3339434237 -1.4553068653 -3.0122208912	  C3      1    UNL1	  0.259910
     403     C	 1.0360722579 -0.4408508370 -3.0122208912	  C3      1    UNL1	  0.201872
     404     C	 0.2370307509 0.2515225701 -3.0122208912	  C3      1    UNL1	  0.046184
     405     C	 -0.8094910646 0.4019896914 -3.0122208912	  C3      1    UNL1	 -0.130360
     406     C	 -1.7712299065 -0.0372217211 -3.0122208912	  C3      1    UNL1	 -0.285238
     407     C	 -2.3428404878 -0.9266651471 -3.0122208912	  C3      1    UNL1	 -0.377290
     408     C	 1.0360722579 -2.4697628936 -3.0122208912	  C3      1    UNL1	  0.201872
     409     C	 0.4988688397 -1.4553068653 -3.6781706497	  C3      1    UNL1	  0.097201
     410     C	 -0.0217916473 -0.5534964484 -3.6781706497	  C3      1    UNL1	 -0.003509
     411     C	 -1.0631126212 -0.5534964484 -3.6781706497	  C3      1    UNL1	 -0.171203
     412     C	 1.2030226531 -2.2190523351 2.0593866516	  C3      1    UNL1	  0.234401
     413     C	 2.2362679205 -2.2190523351 2.0593866516	  C3      1    UNL1	  0.435722
     414     C	 3.6288335960 -1.3242356852 1.4741002230	  C3      1    UNL1	  0.707054
     415     C	 -0.1122074811 -1.8621161891 1.4741002230	  C3      1    UNL1	 -0.018070
     416     C	 0.4693928294 -2.7671039373 1.4741002230	  C3      1    UNL1	  0.091458
     417     C	 1.4479394614 -3.2139912103 1.4741002230	  C3      1    UNL1	  0.282121
     418     C	 2.5127507731 -3.0608944564 1.4741002230	  C3      1    UNL1	  0.489593
     419     C	 3.3257566968 -2.3564208134 1.4741002230	  C3      1    UNL1	  0.648002
     420     C	 4.2141200246 -1.3242356852 0.5981571812	  C3      1    UNL1	  0.821093
     421     C	 0.1643657268 -3.2744945675 0.5981571812	  C3      1    UNL1	  0.032026
     422     C	 1.1645724385 -3.7561687333 0.5981571812	  C3      1    UNL1	  0.226909
     423     C	 2.2747181352 -3.7561687333 0.5981571812	  C3      1    UNL1	  0.443214
     424     C	 3.2749248468 -3.2744945675 0.5981571812	  C3      1    UNL1	  0.638097
     425     C	 3.9670893673 -2.4065477116 0.5981571812	  C3      1    UNL1	  0.772961
     426     C	 4.4196452868 -1.3242356852 -0.4350880862	  C3      1    UNL1	  0.861138
     427     C	 4.2141200246 -0.2909904178 -0.4350880862	  C3      1    UNL1	  0.821093
     428     C	 0.6864000195 -3.8187104230 -0.4350880862	  C3      1    UNL1	  0.133740
     429     C	 1.7196452868 -4.0242356852 -0.4350880862	  C3      1    UNL1	  0.335061
     430     C	 2.7528905542 -3.8187104230 -0.4350880862	  C3      1    UNL1	  0.536383
     431     C	 3.6288335960 -3.2334239944 -0.4350880862	  C3      1    UNL1	  0.707054
     432     C	 4.2141200246 -2.3574809526 -0.4350880862	  C3      1    UNL1	  0.821093
     433     C	 4.2141200246 -1.3242356852 -1.4683333536	  C3      1    UNL1	  0.821093
     434     C	 3.9670893673 -0.2419236589 -1.4683333536	  C3      1    UNL1	  0.772961
     435     C	 3.2749248468 0.6260231970 -1.4683333536	  C3      1    UNL1	  0.638097
     436     C	 2.2747181352 1.1076973629 -1.4683333536	  C3      1    UNL1	  0.443214
     437     C	 1.1645724385 1.1076973629 -1.4683333536	  C3      1    UNL1	  0.226909
     438     C	 1.1645724385 -3.7561687333 -1.4683333536	  C3      1    UNL1	  0.226909
     439     C	 2.2747181352 -3.7561687333 -1.4683333536	  C3      1    UNL1	  0.443214
     440     C	 3.2749248468 -3.2744945675 -1.4683333536	  C3      1    UNL1	  0.638097
     441     C	 3.9670893673 -2.4065477116 -1.4683333536	  C3      1    UNL1	  0.772961
     442     C	 3.6288335960 -1.3242356852 -2.3442763954	  C3      1    UNL1	  0.707054
     443     C	 3.3257566968 -0.2920505571 -2.3442763954	  C3      1    UNL1	  0.648002
     444     C	 2.5127507731 0.4124230860 -2.3442763954	  C3      1    UNL1	  0.489593
     445     C	 1.4479394614 0.5655198398 -2.3442763954	  C3      1    UNL1	  0.282121
     446     C	 1.4479394614 -3.2139912103 -2.3442763954	  C3      1    UNL1	  0.282121
     447     C	 2.5127507731 -3.0608944564 -2.3442763954	  C3      1    UNL1	  0.489593
     448     C	 3.3257566968 -2.3564208134 -2.3442763954	  C3      1    UNL1	  0.648002
     449     C	 2.7528905542 -1.3242356852 -2.9295628240	  C3      1    UNL1	  0.536383
     450     C	 2.2362679205 -0.4294190353 -2.9295628240	  C3      1    UNL1	  0.435722
     451     C	 2.2362679205 -2.2190523351 -2.9295628240	  C3      1    UNL1	  0.435722
     452     C	 1.7196452868 -1.3242356852 -3.1350880862	  C3      1    UNL1	  0.335061
     453     C	 0.9919183230 1.5423577156 3.6716911723	  C3      1    UNL1	  0.193269
     454     C	 0.4752956894 0.6475410657 3.6716911723	  C3      1    UNL1	  0.092608
     455     C	 0.9919183230 -0.2472755842 3.6716911723	  C3      1    UNL1	  0.193269
     456     C	 1.2368351313 2.5372965907 3.0864047438	  C3      1    UNL1	  0.240989
     457     C	 0.2582884993 -0.7953271863 3.0864047438	  C3      1    UNL1	  0.050326
     458     C	 1.2368351313 -1.2422144593 3.0864047438	  C3      1    UNL1	  0.240989
     459     C	 2.3016464430 -1.0891177055 3.0864047438	  C3      1    UNL1	  0.448460
     460     C	 2.0636138051 3.0794741138 2.2104617020	  C3      1    UNL1	  0.402081
     461     C	 -0.0467386033 -1.3027178165 2.2104617020	  C3      1    UNL1	 -0.007527
     462     C	 0.9534681084 -1.7843919824 2.2104617020	  C3      1    UNL1	  0.185777
     463     C	 2.0636138051 -1.7843919824 2.2104617020	  C3      1    UNL1	  0.402081
     464     C	 3.0638205167 -1.3027178165 2.2104617020	  C3      1    UNL1	  0.596965
     465     C	 2.5417862241 3.1420158035 1.1772164346	  C3      1    UNL1	  0.495250
     466     C	 1.5085409567 3.3475410657 1.1772164346	  C3      1    UNL1	  0.293929
     467     C	 4.0030156945 0.6475410657 0.1439711672	  C3      1    UNL1	  0.779961
     468     C	 3.7559850372 1.7298530921 0.1439711672	  C3      1    UNL1	  0.731829
     469     C	 3.0638205167 2.5977999479 0.1439711672	  C3      1    UNL1	  0.596965
     470     C	 2.0636138051 3.0794741138 0.1439711672	  C3      1    UNL1	  0.402081
     471     C	 3.1146523667 1.6797261939 -0.7319718746	  C3      1    UNL1	  0.606869
     472     C	 2.3016464430 2.3841998369 -0.7319718746	  C3      1    UNL1	  0.448460
     473     C	 1.2368351313 2.5372965907 -0.7319718746	  C3      1    UNL1	  0.240989
     474     C	 2.0251635904 1.5423577156 -1.3172583032	  C3      1    UNL1	  0.394590
     475     C	 0.9919183230 1.5423577156 -1.3172583032	  C3      1    UNL1	  0.193269
     476     C	 -2.6862970806 -3.2445044867 -1.5150667472	  C3      1    UNL1	 -0.432600
     477     C	 -2.1164474825 -4.1312077693 -1.5150667472	  C3      1    UNL1	 -0.340832
     478     C	 -1.1576715074 -4.5690660859 -1.5150667472	  C3      1    UNL1	 -0.186431
     479     C	 -0.1143737529 -4.4190625146 -1.5150667472	  C3      1    UNL1	 -0.018419
     480     C	 -2.9886895800 -2.2005695410 -2.5950667472	  C3      1    UNL1	 -0.481298
     481     C	 -2.9886895800 -3.2344132108 -2.5950667472	  C3      1    UNL1	 -0.481298
     482     C	 -2.5082384704 -4.1498363177 -2.5950667472	  C3      1    UNL1	 -0.403926
     483     C	 -1.6574018104 -4.7371264601 -2.5950667472	  C3      1    UNL1	 -0.266908
     484     C	 -0.6310960250 -4.8617425439 -2.5950667472	  C3      1    UNL1	 -0.101632
     485     C	 0.3355645985 -4.4951365262 -2.5950667472	  C3      1    UNL1	  0.065383
     486     C	 1.0211297610 -3.7212934275 -2.5950667472	  C3      1    UNL1	  0.198960
     487     C	 0.9791596178 -2.7174913759 -3.6750667472	  C3      1    UNL1	  0.190783
     488     C	 -2.6862970806 -2.1904782651 -3.6750667472	  C3      1    UNL1	 -0.432600
     489     C	 -2.6862970806 -3.2445044867 -3.6750667472	  C3      1    UNL1	 -0.432600
     490     C	 -2.1164474825 -4.1312077693 -3.6750667472	  C3      1    UNL1	 -0.340832
     491     C	 -1.1576715074 -4.5690660859 -3.6750667472	  C3      1    UNL1	 -0.186431
     492     C	 -0.1143737529 -4.4190625146 -3.6750667472	  C3      1    UNL1	 -0.018419
     493     C	 0.6822061154 -3.7288221295 -3.6750667472	  C3      1    UNL1	  0.132923
     494     C	 0.1885447456 -2.7174913759 -4.4656816194	  C3      1    UNL1	  0.036737
     495     C	 -0.3514552544 -1.7821839398 -4.4656816194	  C3      1    UNL1	 -0.056598
     496     C	 -1.4314552544 -1.7821839398 -4.4656816194	  C3      1    UNL1	 -0.230521
     497     C	 -1.9714552544 -2.7174913759 -4.4656816194	  C3      1    UNL1	 -0.317483
     498     C	 -1.4314552544 -3.6527988120 -4.4656816194	  C3      1    UNL1	 -0.230521
     499     C	 -0.3514552544 -3.6527988120 -4.4656816194	  C3      1    UNL1	 -0.056598
     500     C	 -0.8914552544 -2.7174913759 -4.7550667472	  C3      1    UNL1	 -0.143560
     501     C	 -4.4098216058 1.4886485317 0.8137457757	  C3      1    UNL1	 -0.710156
     502     C	 -4.9498216058 0.5533410957 0.8137457757	  C3      1    UNL1	 -0.797118
     503     C	 -4.4098216058 -0.3819663404 0.8137457757	  C3      1    UNL1	 -0.710156
     504     C	 -4.1360378588 2.4049158056 0.0231309035	  C3      1    UNL1	 -0.666066
     505     C	 -5.0948138339 1.9670574891 0.0231309035	  C3      1    UNL1	 -0.820467
     506     C	 -5.6646634320 1.0803542065 0.0231309035	  C3      1    UNL1	 -0.912236
     507     C	 -5.6646634320 0.0263279848 0.0231309035	  C3      1    UNL1	 -0.912236
     508     C	 -5.0948138339 -0.8603752978 0.0231309035	  C3      1    UNL1	 -0.820467
     509     C	 -3.6094623764 2.6975922637 -1.0568690965	  C3      1    UNL1	 -0.581267
     510     C	 -4.6357681618 2.5729761799 -1.0568690965	  C3      1    UNL1	 -0.746543
     511     C	 -5.4866048219 1.9856860375 -1.0568690965	  C3      1    UNL1	 -0.883561
     512     C	 -5.9670559314 1.0702629305 -1.0568690965	  C3      1    UNL1	 -0.960933
     513     C	 -5.9670559314 0.0364192608 -1.0568690965	  C3      1    UNL1	 -0.960933
     514     C	 -5.4866048219 -0.8790038461 -1.0568690965	  C3      1    UNL1	 -0.883561
     515     C	 -4.6357681618 -1.4662939885 -1.0568690965	  C3      1    UNL1	 -0.746543
     516     C	 -4.1360378588 2.4049158056 -2.1368690965	  C3      1    UNL1	 -0.666066
     517     C	 -5.0948138339 1.9670574891 -2.1368690965	  C3      1    UNL1	 -0.820467
     518     C	 -5.6646634320 1.0803542065 -2.1368690965	  C3      1    UNL1	 -0.912236
     519     C	 -5.6646634320 0.0263279848 -2.1368690965	  C3      1    UNL1	 -0.912236
     520     C	 -5.0948138339 -0.8603752978 -2.1368690965	  C3      1    UNL1	 -0.820467
     521     C	 -4.1360378588 -1.2982336143 -2.1368690965	  C3      1    UNL1	 -0.666066
     522     C	 -3.3298216058 1.4886485317 -2.9274839687	  C3      1    UNL1	 -0.536234
     523     C	 -4.4098216058 1.4886485317 -2.9274839687	  C3      1    UNL1	 -0.710156
     524     C	 -4.9498216058 0.5533410957 -2.9274839687	  C3      1    UNL1	 -0.797118
     525     C	 -4.4098216058 -0.3819663404 -2.9274839687	  C3      1    UNL1	 -0.710156
     526     C	 -3.3298216058 -0.3819663404 -2.9274839687	  C3      1    UNL1	 -0.536234
     527     C	 -3.8698216058 0.5533410957 -3.2168690965	  C3      1    UNL1	 -0.623195
     528     C	 -1.2009923945 3.1053040469 4.6244234352	  C3      1    UNL1	 -0.193407
     529     C	 -0.1209923945 3.1053040469 4.3350383074	  C3      1    UNL1	 -0.019485
     530     C	 -0.6609923945 4.0406114829 4.3350383074	  C3      1    UNL1	 -0.106446
     531     C	 -1.7409923945 4.0406114829 4.3350383074	  C3      1    UNL1	 -0.280369
     532     C	 -2.2809923945 3.1053040469 4.3350383074	  C3      1    UNL1	 -0.367330
     533     C	 -1.7409923945 2.1699966108 4.3350383074	  C3      1    UNL1	 -0.280369
     534     C	 -0.6609923945 2.1699966108 4.3350383074	  C3      1    UNL1	 -0.106446
     535     C	 0.6696224776 3.1053040469 3.5444234352	  C3      1    UNL1	  0.130471
     536     C	 0.3726689752 4.1166348005 3.5444234352	  C3      1    UNL1	  0.072612
     537     C	 -0.4239108931 4.8068751856 3.5444234352	  C3      1    UNL1	 -0.068266
     538     C	 -1.4672086475 4.9568787568 3.5444234352	  C3      1    UNL1	 -0.236279
     539     C	 -2.4259846227 4.5190204403 3.5444234352	  C3      1    UNL1	 -0.390680
     540     C	 -2.9958342207 3.6323171577 3.5444234352	  C3      1    UNL1	 -0.482448
     541     C	 -2.9958342207 2.5782909361 3.5444234352	  C3      1    UNL1	 -0.482448
     542     C	 -2.4259846227 1.6915876534 3.5444234352	  C3      1    UNL1	 -0.390680
     543     C	 0.7115926209 4.1091060985 2.4644234352	  C3      1    UNL1	  0.138649
     544     C	 0.0260274584 4.8829491972 2.4644234352	  C3      1    UNL1	  0.005071
     545     C	 -0.9406331652 5.2495552149 2.4644234352	  C3      1    UNL1	 -0.151479
     546     C	 -1.9669389506 5.1249391311 2.4644234352	  C3      1    UNL1	 -0.316755
     547     C	 -2.8177756106 4.5376489887 2.4644234352	  C3      1    UNL1	 -0.453774
     548     C	 -3.2982267202 3.6222258817 2.4644234352	  C3      1    UNL1	 -0.531145
     549     C	 -3.2982267202 2.5883822120 2.4644234352	  C3      1    UNL1	 -0.531145
     550     C	 -0.4239108931 4.8068751856 1.3844234352	  C3      1    UNL1	 -0.068266
     551     C	 -1.4672086475 4.9568787568 1.3844234352	  C3      1    UNL1	 -0.236279
     552     C	 -2.4259846227 4.5190204403 1.3844234352	  C3      1    UNL1	 -0.390680
     553     C	 -2.9958342207 3.6323171577 1.3844234352	  C3      1    UNL1	 -0.482448
     554     C	 2.7925010073 0.9341849258 4.4385802851	  C3      1    UNL1	  0.544100
     555     C	 3.8725010073 0.9341849258 4.1491951573	  C3      1    UNL1	  0.754531
     556     C	 3.3325010073 1.8694923619 4.1491951573	  C3      1    UNL1	  0.649316
     557     C	 2.2525010073 1.8694923619 4.1491951573	  C3      1    UNL1	  0.438885
     558     C	 1.7125010073 0.9341849258 4.1491951573	  C3      1    UNL1	  0.333669
     559     C	 2.2525010073 -0.0011225103 4.1491951573	  C3      1    UNL1	  0.438885
     560     C	 3.3325010073 -0.0011225103 4.1491951573	  C3      1    UNL1	  0.649316
     561     C	 4.6631158795 0.9341849258 3.3585802851	  C3      1    UNL1	  0.908577
     562     C	 4.3661623771 1.9455156795 3.3585802851	  C3      1    UNL1	  0.850718
     563     C	 3.5695825088 2.6357560645 3.3585802851	  C3      1    UNL1	  0.695510
     564     C	 2.5262847543 2.7857596358 3.3585802851	  C3      1    UNL1	  0.492230
     565     C	 1.5675087792 2.3479013193 3.3585802851	  C3      1    UNL1	  0.305419
     566     C	 2.5262847543 -0.9173897841 3.3585802851	  C3      1    UNL1	  0.492230
     567     C	 3.5695825088 -0.7673862129 3.3585802851	  C3      1    UNL1	  0.695510
     568     C	 4.3661623771 -0.0771458278 3.3585802851	  C3      1    UNL1	  0.850718
     569     C	 4.9525010073 0.9341849258 2.2785802851	  C3      1    UNL1	  0.964962
     570     C	 4.7050860228 1.9379869774 2.2785802851	  C3      1    UNL1	  0.916755
     571     C	 4.0195208603 2.7118300762 2.2785802851	  C3      1    UNL1	  0.783177
     572     C	 3.0528602367 3.0784360939 2.2785802851	  C3      1    UNL1	  0.594829
     573     C	 4.0195208603 -0.8434602245 2.2785802851	  C3      1    UNL1	  0.783177
     574     C	 4.7050860228 -0.0696171258 2.2785802851	  C3      1    UNL1	  0.916755
     575     C	 4.6631158795 0.9341849258 1.1985802851	  C3      1    UNL1	  0.908577
     576     C	 4.3661623771 1.9455156795 1.1985802851	  C3      1    UNL1	  0.850718
     577     C	 3.5695825088 2.6357560645 1.1985802851	  C3      1    UNL1	  0.695510
     578     C	 4.3661623771 -0.0771458278 1.1985802851	  C3      1    UNL1	  0.850718
     579     C	 0.2526043130 1.7137135062 3.6348297223	  C3      1    UNL1	  0.049218
     580     C	 -1.2972635880 0.8188968563 3.6348297223	  C3      1    UNL1	 -0.208911
     581     C	 -0.2640183206 0.8188968563 3.6348297223	  C3      1    UNL1	 -0.042517
     582     C	 -2.6124937223 1.1758330024 3.0495432938	  C3      1    UNL1	 -0.420715
     583     C	 -2.0308934117 0.2708452542 3.0495432938	  C3      1    UNL1	 -0.327054
     584     C	 -1.0523467798 -0.1760420188 3.0495432938	  C3      1    UNL1	 -0.169470
     585     C	 -3.2751156921 1.7137135062 2.1736002519	  C3      1    UNL1	 -0.527424
     586     C	 -3.0280850349 0.6314014798 2.1736002519	  C3      1    UNL1	 -0.487642
     587     C	 -2.3359205143 -0.2365453760 2.1736002519	  C3      1    UNL1	 -0.376176
     588     C	 -1.3357138027 -0.7182195419 2.1736002519	  C3      1    UNL1	 -0.215103
     589     C	 1.1285473549 3.6229018154 1.1403549846	  C3      1    UNL1	  0.219890
     590     C	 0.2526043130 4.2081882440 1.1403549846	  C3      1    UNL1	  0.049218
     591     C	 -3.2751156921 2.7469587736 1.1403549846	  C3      1    UNL1	 -0.527424
     592     C	 0.7746386057 3.6639723884 0.1071097172	  C3      1    UNL1	  0.150933
     593     C	 -0.2255681060 4.1456465543 0.1071097172	  C3      1    UNL1	 -0.036325
     594     C	 -1.3357138027 4.1456465543 0.1071097172	  C3      1    UNL1	 -0.215103
     595     C	 -2.3359205143 3.6639723884 0.1071097172	  C3      1    UNL1	 -0.376176
     596     C	 0.8254704556 2.7458986344 -0.7688333247	  C3      1    UNL1	  0.160837
     597     C	 0.0124645319 3.4503722774 -0.7688333247	  C3      1    UNL1	  0.002429
     598     C	 -1.0523467798 3.6034690312 -0.7688333247	  C3      1    UNL1	 -0.169470
     599     C	 -2.0308934117 3.1565817582 -0.7688333247	  C3      1    UNL1	 -0.327054
     600     C	 0.2526043130 1.7137135062 -1.3541197532	  C3      1    UNL1	  0.049218
     601     C	 -0.2640183206 2.6085301561 -1.3541197532	  C3      1    UNL1	 -0.042517
     602     C	 -3.2109821024 0.3737426556 1.9123248115	  C3      1    UNL1	 -0.517096
     603     C	 -2.6943594687 -0.5210739943 1.9123248115	  C3      1    UNL1	 -0.433899
     604     C	 -4.0095896030 0.9116231594 1.3270383829	  C3      1    UNL1	 -0.645703
     605     C	 -4.0095896030 -0.1641378483 1.3270383829	  C3      1    UNL1	 -0.645703
     606     C	 -3.4279892924 -1.0691255965 1.3270383829	  C3      1    UNL1	 -0.552042
     607     C	 -2.4494426605 -1.5160128695 1.3270383829	  C3      1    UNL1	 -0.394458
     608     C	 -1.3846313487 -1.3629161156 1.3270383829	  C3      1    UNL1	 -0.222981
     609     C	 -3.7330163950 2.3240015378 0.4510953411	  C3      1    UNL1	 -0.601164
     610     C	 -3.7330163950 -1.5765162267 0.4510953411	  C3      1    UNL1	 -0.601164
     611     C	 -2.7328096834 -2.0581903925 0.4510953411	  C3      1    UNL1	 -0.440091
     612     C	 -3.2109821024 2.8682173933 -0.5821499263	  C3      1    UNL1	 -0.517096
     613     C	 -3.2109821024 -2.1207320822 -0.5821499263	  C3      1    UNL1	 -0.517096
     614     C	 0.0697072455 1.4560546819 -1.6153951936	  C3      1    UNL1	  0.013582
     615     C	 -0.6224572750 2.3240015378 -1.6153951936	  C3      1    UNL1	 -0.100240
     616     C	 -1.6226639866 2.8056757037 -1.6153951936	  C3      1    UNL1	 -0.261313
     617     C	 -2.7328096834 2.8056757037 -1.6153951936	  C3      1    UNL1	 -0.440091
     618     C	 -3.7330163950 -1.5765162267 -1.6153951936	  C3      1    UNL1	 -0.601164
     619     C	 -0.5716254250 1.4059277837 -2.4913382355	  C3      1    UNL1	 -0.092054
     620     C	 -1.3846313487 2.1104014268 -2.4913382355	  C3      1    UNL1	 -0.222981
     621     C	 -2.4494426605 2.2634981806 -2.4913382355	  C3      1    UNL1	 -0.394458
     622     C	 -3.4279892924 -1.0691255965 -2.4913382355	  C3      1    UNL1	 -0.552042
     623     C	 -1.6611142013 1.2685593055 -3.0766246640	  C3      1    UNL1	 -0.267505
     624     C	 -2.6943594687 1.2685593055 -3.0766246640	  C3      1    UNL1	 -0.433899
     625     C	 -2.6943594687 -0.5210739943 -3.0766246640	  C3      1    UNL1	 -0.433899
     626     C	 -2.1777368350 0.3737426556 -3.2821499263	  C3      1    UNL1	 -0.350702
     627     C	 -0.5424521342 -1.4553068653 1.1841546333	  C3      1    UNL1	 -0.087356
     628     C	 -1.0590747679 -2.3501235152 0.9786293711	  C3      1    UNL1	 -0.170553
     629     C	 -1.7927045916 -2.8981751173 0.3933429425	  C3      1    UNL1	 -0.288697
     630     C	 -0.8141579597 -3.3450623903 0.3933429425	  C3      1    UNL1	 -0.131112
     631     C	 -2.7898962147 -2.5376188917 -0.4826000993	  C3      1    UNL1	 -0.449284
     632     C	 -2.0977316942 -3.4055657475 -0.4826000993	  C3      1    UNL1	 -0.337818
     633     C	 -1.0975249826 -3.8872399134 -0.4826000993	  C3      1    UNL1	 -0.176745
     634     C	 0.0126207142 -3.8872399134 -0.4826000993	  C3      1    UNL1	  0.002459
     635     C	 0.4907931332 1.0391678725 -1.5158453667	  C3      1    UNL1	  0.095628
     636     C	 -3.0369268720 -2.4885521327 -1.5158453667	  C3      1    UNL1	 -0.489066
     637     C	 1.0128274258 0.4949520169 -2.5490906341	  C3      1    UNL1	  0.197343
     638     C	 0.0126207142 0.9766261828 -2.5490906341	  C3      1    UNL1	  0.002459
     639     C	 -3.0369268720 -1.4553068653 -2.5490906341	  C3      1    UNL1	 -0.489066
     640     C	 1.3667361750 -1.4553068653 -3.4250336759	  C3      1    UNL1	  0.266299
     641     C	 1.0636592757 -0.4231217371 -3.4250336759	  C3      1    UNL1	  0.207247
     642     C	 0.2506533521 0.2813519059 -3.4250336759	  C3      1    UNL1	  0.048838
     643     C	 -0.8141579597 0.4344486597 -3.4250336759	  C3      1    UNL1	 -0.131112
     644     C	 -1.7927045916 -0.0124386133 -3.4250336759	  C3      1    UNL1	 -0.288697
     645     C	 -2.3743049022 -0.9174263615 -3.4250336759	  C3      1    UNL1	 -0.382357
     646     C	 0.4907931332 -1.4553068653 -4.0103201045	  C3      1    UNL1	  0.095628
     647     C	 -0.0258295005 -0.5604902154 -4.0103201045	  C3      1    UNL1	 -0.004160
     648     C	 -1.0590747679 -0.5604902154 -4.0103201045	  C3      1    UNL1	 -0.170553
     649     C	 1.2066150719 -2.2128300834 2.3839897762	  C3      1    UNL1	  0.235101
     650     C	 2.2326755018 -2.2128300834 2.3839897762	  C3      1    UNL1	  0.435022
     651     C	 -0.1306052982 -1.8675182756 1.8630452432	  C3      1    UNL1	 -0.021033
     652     C	 0.4568361893 -2.7815950725 1.8630452432	  C3      1    UNL1	  0.089011
     653     C	 1.4452106427 -3.2329705612 1.8630452432	  C3      1    UNL1	  0.281590
     654     C	 2.5207161565 -3.0783362132 1.8630452432	  C3      1    UNL1	  0.491145
     655     C	 3.3418873294 -2.3667873415 1.8630452432	  C3      1    UNL1	  0.651144
     656     C	 4.3177214982 -1.3242356852 1.0649119138	  C3      1    UNL1	  0.841279
     657     C	 0.4206071812 -3.5742356852 1.0649119138	  C3      1    UNL1	  0.081952
     658     C	 1.4480723730 -3.9080793633 1.0649119138	  C3      1    UNL1	  0.282147
     659     C	 2.5224949888 -3.7951529959 1.0649119138	  C3      1    UNL1	  0.491491
     660     C	 3.4580975975 -3.2549825779 1.0649119138	  C3      1    UNL1	  0.673787
     661     C	 4.0931060083 -2.3809684819 1.0649119138	  C3      1    UNL1	  0.797515
     662     C	 4.6740685459 -1.3242356852 0.0858564468	  C3      1    UNL1	  0.910711
     663     C	 4.4745629298 -0.2569749045 0.0858564468	  C3      1    UNL1	  0.871839
     664     C	 0.9111289838 -4.1658757366 0.0858564468	  C3      1    UNL1	  0.177527
     665     C	 1.9922450741 -4.2660558955 0.0858564468	  C3      1    UNL1	  0.388176
     666     C	 3.0365450526 -3.9689269339 0.0858564468	  C3      1    UNL1	  0.591651
     667     C	 3.9029904205 -3.3146177643 0.0858564468	  C3      1    UNL1	  0.760472
     668     C	 4.4745629298 -2.3914964660 0.0858564468	  C3      1    UNL1	  0.871839
     669     C	 4.6740685459 -1.3242356852 -0.9560326192	  C3      1    UNL1	  0.910711
     670     C	 4.4745629298 -0.2569749045 -0.9560326192	  C3      1    UNL1	  0.871839
     671     C	 3.9029904205 0.6661463939 -0.9560326192	  C3      1    UNL1	  0.760472
     672     C	 0.9111289838 -4.1658757366 -0.9560326192	  C3      1    UNL1	  0.177527
     673     C	 1.9922450741 -4.2660558955 -0.9560326192	  C3      1    UNL1	  0.388176
     674     C	 3.0365450526 -3.9689269339 -0.9560326192	  C3      1    UNL1	  0.591651
     675     C	 3.9029904205 -3.3146177643 -0.9560326192	  C3      1    UNL1	  0.760472
     676     C	 4.4745629298 -2.3914964660 -0.9560326192	  C3      1    UNL1	  0.871839
     677     C	 4.3177214982 -1.3242356852 -1.9350880862	  C3      1    UNL1	  0.841279
     678     C	 4.0931060083 -0.2675028886 -1.9350880862	  C3      1    UNL1	  0.797515
     679     C	 3.4580975975 0.6065112074 -1.9350880862	  C3      1    UNL1	  0.673787
     680     C	 2.5224949888 1.1466816254 -1.9350880862	  C3      1    UNL1	  0.491491
     681     C	 1.4480723730 1.2596079928 -1.9350880862	  C3      1    UNL1	  0.282147
     682     C	 1.4480723730 -3.9080793633 -1.9350880862	  C3      1    UNL1	  0.282147
     683     C	 2.5224949888 -3.7951529959 -1.9350880862	  C3      1    UNL1	  0.491491
     684     C	 3.4580975975 -3.2549825779 -1.9350880862	  C3      1    UNL1	  0.673787
     685     C	 4.0931060083 -2.3809684819 -1.9350880862	  C3      1    UNL1	  0.797515
     686     C	 3.6480081159 -1.3242356852 -2.7332214155	  C3      1    UNL1	  0.710790
     687     C	 3.3418873294 -0.2816840290 -2.7332214155	  C3      1    UNL1	  0.651144
     688     C	 2.5207161565 0.4298648427 -2.7332214155	  C3      1    UNL1	  0.491145
     689     C	 1.4452106427 0.5844991907 -2.7332214155	  C3      1    UNL1	  0.281590
     690     C	 2.5207161565 -3.0783362132 -2.7332214155	  C3      1    UNL1	  0.491145
     691     C	 3.3418873294 -2.3667873415 -2.7332214155	  C3      1    UNL1	  0.651144
     692     C	 2.7457057168 -1.3242356852 -3.2541659486	  C3      1    UNL1	  0.534983
     693     C	 2.2326755018 -0.4356412871 -3.2541659486	  C3      1    UNL1	  0.435022
     694     C	 2.2326755018 -2.2128300834 -3.2541659486	  C3      1    UNL1	  0.435022
     695     C	 0.9955107418 1.5361354639 3.9962942969	  C3      1    UNL1	  0.193969
     696     C	 0.4824805268 0.6475410657 3.9962942969	  C3      1    UNL1	  0.094008
     697     C	 0.9955107418 -0.2410533325 3.9962942969	  C3      1    UNL1	  0.193969
     698     C	 1.2341063126 2.5562759416 3.4753497639	  C3      1    UNL1	  0.240457
     699     C	 0.2457318592 -0.8098183216 3.4753497639	  C3      1    UNL1	  0.047879
     700     C	 1.2341063126 -1.2611938102 3.4753497639	  C3      1    UNL1	  0.240457
     701     C	 2.3096118264 -1.1065594623 3.4753497639	  C3      1    UNL1	  0.450013
     702     C	 -0.5933468509 -0.8795698157 2.6772164346	  C3      1    UNL1	 -0.095552
     703     C	 0.2095028511 -1.6024589343 2.6772164346	  C3      1    UNL1	  0.040820
     704     C	 1.2369680429 -1.9363026123 2.6772164346	  C3      1    UNL1	  0.241015
     705     C	 2.3113906587 -1.8233762449 2.6772164346	  C3      1    UNL1	  0.450359
     706     C	 2.8254407225 3.2922323143 1.6981609676	  C3      1    UNL1	  0.550518
     707     C	 1.7811407440 3.5893612760 1.6981609676	  C3      1    UNL1	  0.347043
     708     C	 3.6918860904 2.6379231448 0.6562719016	  C3      1    UNL1	  0.719339
     709     C	 2.8254407225 3.2922323143 0.6562719016	  C3      1    UNL1	  0.550518
     710     C	 1.7811407440 3.5893612760 0.6562719016	  C3      1    UNL1	  0.347043
     711     C	 4.1066171681 0.6475410657 -0.3227835654	  C3      1    UNL1	  0.800147
     712     C	 3.8820016782 1.7042738624 -0.3227835654	  C3      1    UNL1	  0.756382
     713     C	 3.2469932674 2.5782879584 -0.3227835654	  C3      1    UNL1	  0.632655
     714     C	 2.3113906587 3.1184583763 -0.3227835654	  C3      1    UNL1	  0.450359
     715     C	 3.1307829993 1.6900927220 -1.1209168948	  C3      1    UNL1	  0.610012
     716     C	 2.3096118264 2.4016415937 -1.1209168948	  C3      1    UNL1	  0.450013
     717     C	 1.2341063126 2.5562759416 -1.1209168948	  C3      1    UNL1	  0.240457
     718     C	 2.0215711717 1.5361354639 -1.6418614278	  C3      1    UNL1	  0.393890
     719     C	 0.9955107418 1.5361354639 -1.6418614278	  C3      1    UNL1	  0.193969
     720     C	 -2.1202330266 -4.1355765201 -1.0986912228	  C3      1    UNL1	 -0.341442
     721     C	 -1.1584941848 -4.5747879326 -1.0986912228	  C3      1    UNL1	 -0.186564
     722     C	 -0.1119723693 -4.4243208113 -1.0986912228	  C3      1    UNL1	 -0.018032
     723     C	 -3.2312822436 -2.7174913759 -2.0610165057	  C3      1    UNL1	 -0.520365
     724     C	 -2.9995665280 -3.7327042589 -2.0610165057	  C3      1    UNL1	 -0.483049
     725     C	 -2.3503135203 -4.5468417796 -2.0610165057	  C3      1    UNL1	 -0.378494
     726     C	 -1.4121157413 -4.9986540174 -2.0610165057	  C3      1    UNL1	 -0.227407
     727     C	 -0.3707947675 -4.9986540174 -2.0610165057	  C3      1    UNL1	 -0.059713
     728     C	 0.5674030115 -4.5468417796 -2.0610165057	  C3      1    UNL1	  0.110555
     729     C	 -3.2312822436 -2.7174913759 -3.1291169887	  C3      1    UNL1	 -0.520365
     730     C	 -2.9995665280 -3.7327042589 -3.1291169887	  C3      1    UNL1	 -0.483049
     731     C	 -2.3503135203 -4.5468417796 -3.1291169887	  C3      1    UNL1	 -0.378494
     732     C	 -1.4121157413 -4.9986540174 -3.1291169887	  C3      1    UNL1	 -0.227407
     733     C	 -0.3707947675 -4.9986540174 -3.1291169887	  C3      1    UNL1	 -0.059713
     734     C	 0.5674030115 -4.5468417796 -3.1291169887	  C3      1    UNL1	  0.110555
     735     C	 1.2166560192 -3.7327042589 -3.1291169887	  C3      1    UNL1	  0.237057
     736     C	 0.9849403035 -2.7174913759 -4.0914422717	  C3      1    UNL1	  0.191909
     737     C	 -2.1202330266 -1.2994062317 -4.0914422717	  C3      1    UNL1	 -0.341442
     738     C	 -2.6918436079 -2.1888496577 -4.0914422717	  C3      1    UNL1	 -0.433494
     739     C	 -2.6918436079 -3.2461330941 -4.0914422717	  C3      1    UNL1	 -0.433494
     740     C	 -2.1202330266 -4.1355765201 -4.0914422717	  C3      1    UNL1	 -0.341442
     741     C	 -1.1584941848 -4.5747879326 -4.0914422717	  C3      1    UNL1	 -0.186564
     742     C	 -0.1119723693 -4.4243208113 -4.0914422717	  C3      1    UNL1	 -0.018032
     743     C	 0.6870691377 -3.7319474042 -4.0914422717	  C3      1    UNL1	  0.133871
     744     C	 0.1498657195 -2.7174913759 -4.7573920302	  C3      1    UNL1	  0.029200
     745     C	 -0.3707947675 -1.8156809590 -4.7573920302	  C3      1    UNL1	 -0.059713
     746     C	 -1.4121157413 -1.8156809590 -4.7573920302	  C3      1    UNL1	 -0.227407
     747     C	 -1.9327762283 -2.7174913759 -4.7573920302	  C3      1    UNL1	 -0.311254
     748     C	 -1.4121157413 -3.6193017928 -4.7573920302	  C3      1    UNL1	 -0.227407
     749     C	 -0.3707947675 -3.6193017928 -4.7573920302	  C3      1    UNL1	 -0.059713
     750     C	 -0.8914552544 -2.7174913759 -4.9950667472	  C3      1    UNL1	 -0.143560
     751     C	 -4.9111425797 0.5533410957 1.1054561865	  C3      1    UNL1	 -0.790889
     752     C	 -4.1368605362 2.4106376523 0.4395064280	  C3      1    UNL1	 -0.666199
     753     C	 -5.0985993780 1.9714262399 0.4395064280	  C3      1    UNL1	 -0.821077
     754     C	 -5.6702099593 1.0819828138 0.4395064280	  C3      1    UNL1	 -0.913129
     755     C	 -5.6702099593 0.0246993775 0.4395064280	  C3      1    UNL1	 -0.913129
     756     C	 -5.0985993780 -0.8647440486 0.4395064280	  C3      1    UNL1	 -0.821077
     757     C	 -4.3904820927 2.8345037371 -0.5228188550	  C3      1    UNL1	 -0.707042
     758     C	 -5.3286798717 2.3826914994 -0.5228188550	  C3      1    UNL1	 -0.858129
     759     C	 -5.9779328794 1.5685539786 -0.5228188550	  C3      1    UNL1	 -0.962685
     760     C	 -6.2096485950 0.5533410957 -0.5228188550	  C3      1    UNL1	 -1.000000
     761     C	 -5.9779328794 -0.4618717873 -0.5228188550	  C3      1    UNL1	 -0.962685
     762     C	 -5.3286798717 -1.2760093081 -0.5228188550	  C3      1    UNL1	 -0.858129
     763     C	 -4.3904820927 -1.7278215458 -0.5228188550	  C3      1    UNL1	 -0.707042
     764     C	 -4.3904820927 2.8345037371 -1.5909193380	  C3      1    UNL1	 -0.707042
     765     C	 -5.3286798717 2.3826914994 -1.5909193380	  C3      1    UNL1	 -0.858129
     766     C	 -5.9779328794 1.5685539786 -1.5909193380	  C3      1    UNL1	 -0.962685
     767     C	 -6.2096485950 0.5533410957 -1.5909193380	  C3      1    UNL1	 -1.000000
     768     C	 -5.9779328794 -0.4618717873 -1.5909193380	  C3      1    UNL1	 -0.962685
     769     C	 -5.3286798717 -1.2760093081 -1.5909193380	  C3      1    UNL1	 -0.858129
     770     C	 -4.3904820927 -1.7278215458 -1.5909193380	  C3      1    UNL1	 -0.707042
     771     C	 -4.1368605362 2.4106376523 -2.5532446209	  C3      1    UNL1	 -0.666199
     772     C	 -5.0985993780 1.9714262399 -2.5532446209	  C3      1    UNL1	 -0.821077
     773     C	 -5.6702099593 1.0819828138 -2.5532446209	  C3      1    UNL1	 -0.913129
     774     C	 -5.6702099593 0.0246993775 -2.5532446209	  C3      1    UNL1	 -0.913129
     775     C	 -5.0985993780 -0.8647440486 -2.5532446209	  C3      1    UNL1	 -0.821077
     776     C	 -4.1368605362 -1.3039554610 -2.5532446209	  C3      1    UNL1	 -0.666199
     777     C	 -3.3491611189 1.4551515125 -3.2191943795	  C3      1    UNL1	 -0.539348
     778     C	 -4.3904820927 1.4551515125 -3.2191943795	  C3      1    UNL1	 -0.707042
     779     C	 -4.9111425797 0.5533410957 -3.2191943795	  C3      1    UNL1	 -0.790889
     780     C	 -4.3904820927 -0.3484693212 -3.2191943795	  C3      1    UNL1	 -0.707042
     781     C	 -3.8698216058 0.5533410957 -3.4568690965	  C3      1    UNL1	 -0.623195
     782     C	 -1.2009923945 3.1053040469 4.8644234352	  C3      1    UNL1	 -0.193407
     783     C	 -0.1596714207 3.1053040469 4.6267487181	  C3      1    UNL1	 -0.025713
     784     C	 -0.6803319076 4.0071144637 4.6267487181	  C3      1    UNL1	 -0.109560
     785     C	 -1.7216528815 4.0071144637 4.6267487181	  C3      1    UNL1	 -0.277254
     786     C	 -2.2423133684 3.1053040469 4.6267487181	  C3      1    UNL1	 -0.361101
     787     C	 -1.7216528815 2.2034936300 4.6267487181	  C3      1    UNL1	 -0.277254
     788     C	 -0.6803319076 2.2034936300 4.6267487181	  C3      1    UNL1	 -0.109560
     789     C	 0.6754031634 3.1053040469 3.9607989596	  C3      1    UNL1	  0.131598
     790     C	 0.3775319976 4.1197600752 3.9607989596	  C3      1    UNL1	  0.073560
     791     C	 -0.4215095094 4.8121334823 3.9607989596	  C3      1    UNL1	 -0.067880
     792     C	 -1.4680313249 4.9626006035 3.9607989596	  C3      1    UNL1	 -0.236411
     793     C	 -2.4297701668 4.5233891911 3.9607989596	  C3      1    UNL1	 -0.391289
     794     C	 -3.0013807481 3.6339457650 3.9607989596	  C3      1    UNL1	 -0.483341
     795     C	 -3.0013807481 2.5766623287 3.9607989596	  C3      1    UNL1	 -0.483341
     796     C	 -2.4297701668 1.6872189026 3.9607989596	  C3      1    UNL1	 -0.391289
     797     C	 0.3775319976 2.0908480186 3.9607989596	  C3      1    UNL1	  0.073560
     798     C	 1.1388345947 3.1053040469 2.9984736767	  C3      1    UNL1	  0.221894
     799     C	 0.9071188790 4.1205169298 2.9984736767	  C3      1    UNL1	  0.176746
     800     C	 0.2578658714 4.9346544506 2.9984736767	  C3      1    UNL1	  0.050243
     801     C	 -0.6803319076 5.3864666883 2.9984736767	  C3      1    UNL1	 -0.109560
     802     C	 -1.7216528815 5.3864666883 2.9984736767	  C3      1    UNL1	 -0.277254
     803     C	 -2.6598506604 4.9346544506 2.9984736767	  C3      1    UNL1	 -0.428342
     804     C	 -3.3091036681 4.1205169298 2.9984736767	  C3      1    UNL1	 -0.532897
     805     C	 -3.5408193838 3.1053040469 2.9984736767	  C3      1    UNL1	 -0.570212
     806     C	 -3.3091036681 2.0900911639 2.9984736767	  C3      1    UNL1	 -0.532897
     807     C	 0.9071188790 4.1205169298 1.9303731937	  C3      1    UNL1	  0.176746
     808     C	 0.2578658714 4.9346544506 1.9303731937	  C3      1    UNL1	  0.050243
     809     C	 -0.6803319076 5.3864666883 1.9303731937	  C3      1    UNL1	 -0.109560
     810     C	 -1.7216528815 5.3864666883 1.9303731937	  C3      1    UNL1	 -0.277254
     811     C	 -2.6598506604 4.9346544506 1.9303731937	  C3      1    UNL1	 -0.428342
     812     C	 -3.3091036681 4.1205169298 1.9303731937	  C3      1    UNL1	 -0.532897
     813     C	 -3.5408193838 3.1053040469 1.9303731937	  C3      1    UNL1	 -0.570212
     814     C	 -0.4215095094 4.8121334823 0.9680479107	  C3      1    UNL1	 -0.067880
     815     C	 -1.4680313249 4.9626006035 0.9680479107	  C3      1    UNL1	 -0.236411
     816     C	 -2.4297701668 4.5233891911 0.9680479107	  C3      1    UNL1	 -0.391289
     817     C	 2.7925010073 0.9341849258 4.6785802851	  C3      1    UNL1	  0.544100
     818     C	 3.8338219812 0.9341849258 4.4409055681	  C3      1    UNL1	  0.746995
     819     C	 3.3131614943 1.8359953427 4.4409055681	  C3      1    UNL1	  0.645547
     820     C	 2.2718405204 1.8359953427 4.4409055681	  C3      1    UNL1	  0.442653
     821     C	 1.7511800335 0.9341849258 4.4409055681	  C3      1    UNL1	  0.341206
     822     C	 2.2718405204 0.0323745090 4.4409055681	  C3      1    UNL1	  0.442653
     823     C	 3.3131614943 0.0323745090 4.4409055681	  C3      1    UNL1	  0.645547
     824     C	 4.6688965653 0.9341849258 3.7749558096	  C3      1    UNL1	  0.909704
     825     C	 4.3710253994 1.9486409541 3.7749558096	  C3      1    UNL1	  0.851665
     826     C	 3.5719838924 2.6410143613 3.7749558096	  C3      1    UNL1	  0.695977
     827     C	 2.5254620770 2.7914814825 3.7749558096	  C3      1    UNL1	  0.492069
     828     C	 1.5637232351 2.3522700701 3.7749558096	  C3      1    UNL1	  0.304681
     829     C	 2.5254620770 -0.9231116309 3.7749558096	  C3      1    UNL1	  0.492069
     830     C	 3.5719838924 -0.7726445096 3.7749558096	  C3      1    UNL1	  0.695977
     831     C	 4.3710253994 -0.0802711025 3.7749558096	  C3      1    UNL1	  0.851665
     832     C	 5.1323279966 0.9341849258 2.8126305266	  C3      1    UNL1	  1.000000
     833     C	 4.9006122809 1.9493978088 2.8126305266	  C3      1    UNL1	  0.954852
     834     C	 4.2513592732 2.7635353295 2.8126305266	  C3      1    UNL1	  0.828349
     835     C	 3.3131614943 3.2153475673 2.8126305266	  C3      1    UNL1	  0.645547
     836     C	 2.2718405204 3.2153475673 2.8126305266	  C3      1    UNL1	  0.442653
     837     C	 3.3131614943 -1.3469777157 2.8126305266	  C3      1    UNL1	  0.645547
     838     C	 4.2513592732 -0.8951654779 2.8126305266	  C3      1    UNL1	  0.828349
     839     C	 4.9006122809 -0.0810279571 2.8126305266	  C3      1    UNL1	  0.954852
     840     C	 5.1323279966 0.9341849258 1.7445300436	  C3      1    UNL1	  1.000000
     841     C	 4.9006122809 1.9493978088 1.7445300436	  C3      1    UNL1	  0.954852
     842     C	 4.2513592732 2.7635353295 1.7445300436	  C3      1    UNL1	  0.828349
     843     C	 3.3131614943 3.2153475673 1.7445300436	  C3      1    UNL1	  0.645547
     844     C	 4.2513592732 -0.8951654779 1.7445300436	  C3      1    UNL1	  0.828349
     845     C	 4.9006122809 -0.0810279571 1.7445300436	  C3      1    UNL1	  0.954852
     846     C	 4.6688965653 0.9341849258 0.7822047606	  C3      1    UNL1	  0.909704
     847     C	 4.3710253994 1.9486409541 0.7822047606	  C3      1    UNL1	  0.851665
     848     C	 0.2454194756 1.7137135062 3.9594328469	  C3      1    UNL1	  0.047818
     849     C	 -1.2936711693 0.8251191080 3.9594328469	  C3      1    UNL1	 -0.208332
     850     C	 -0.2676107394 0.8251191080 3.9594328469	  C3      1    UNL1	 -0.043096
     851     C	 -2.6308915394 1.1704309159 3.4384883139	  C3      1    UNL1	 -0.423678
     852     C	 -2.0434500519 0.2563541189 3.4384883139	  C3      1    UNL1	 -0.329077
     853     C	 -1.0550755985 -0.1950213697 3.4384883139	  C3      1    UNL1	 -0.169909
     854     C	 -3.3219429670 1.1735430882 2.6403549846	  C3      1    UNL1	 -0.534965
     855     C	 -2.8825287620 0.1866026248 2.6403549846	  C3      1    UNL1	 -0.464202
     856     C	 -2.0796790600 -0.5362864938 2.6403549846	  C3      1    UNL1	 -0.334911
     857     C	 -1.0522138682 -0.8701301718 2.6403549846	  C3      1    UNL1	 -0.169448
     858     C	 1.4027041793 3.7040955853 1.6612995176	  C3      1    UNL1	  0.273308
     859     C	 -3.6847595431 2.2565873555 1.6612995176	  C3      1    UNL1	 -0.593393
     860     C	 1.4027041793 3.7040955853 0.6194104516	  C3      1    UNL1	  0.273308
     861     C	 0.5362588114 4.3584047548 0.6194104516	  C3      1    UNL1	  0.104487
     862     C	 -0.5080411671 4.6555337165 0.6194104516	  C3      1    UNL1	 -0.081815
     863     C	 -2.5610787408 4.0713941636 0.6194104516	  C3      1    UNL1	 -0.412435
     864     C	 -3.2925422354 3.2690169325 0.6194104516	  C3      1    UNL1	 -0.530230
     865     C	 0.9578113563 3.6444603989 -0.3596450154	  C3      1    UNL1	  0.186623
     866     C	 0.0222087476 4.1846308168 -0.3596450154	  C3      1    UNL1	  0.004327
     867     C	 -1.0522138682 4.2975571842 -0.3596450154	  C3      1    UNL1	 -0.169448
     868     C	 -2.0796790600 3.9637135062 -0.3596450154	  C3      1    UNL1	 -0.334911
     869     C	 0.8416010882 2.7562651625 -1.1577783448	  C3      1    UNL1	  0.163980
     870     C	 0.0204299154 3.4678140342 -1.1577783448	  C3      1    UNL1	  0.003981
     871     C	 -1.0550755985 3.6224483821 -1.1577783448	  C3      1    UNL1	 -0.169909
     872     C	 -0.2676107394 2.6023079044 -1.6787228778	  C3      1    UNL1	 -0.043096
     873     C	 -2.6907670500 -0.5148517426 2.2369279361	  C3      1    UNL1	 -0.433320
     874     C	 -4.0279874201 0.9170252459 1.7159834031	  C3      1    UNL1	 -0.648666
     875     C	 -4.0279874201 -0.1695399348 1.7159834031	  C3      1    UNL1	 -0.648666
     876     C	 -3.4405459326 -1.0836167317 1.7159834031	  C3      1    UNL1	 -0.554064
     877     C	 -2.4521714792 -1.5349922204 1.7159834031	  C3      1    UNL1	 -0.394897
     878     C	 -1.3766659653 -1.3803578724 1.7159834031	  C3      1    UNL1	 -0.221698
     879     C	 -4.2796246427 1.9008535369 0.9178500737	  C3      1    UNL1	 -0.689190
     880     C	 -4.2796246427 -1.1533682258 0.9178500737	  C3      1    UNL1	 -0.689190
     881     C	 -3.4767749407 -1.8762573444 0.9178500737	  C3      1    UNL1	 -0.559899
     882     C	 -2.4493097488 -2.2101010225 0.9178500737	  C3      1    UNL1	 -0.394436
     883     C	 -3.9581746214 -1.9839380018 -0.0612053933	  C3      1    UNL1	 -0.637423
     884     C	 -2.9862531380 -2.4678973958 -0.0612053933	  C3      1    UNL1	 -0.480905
     885     C	 -2.9862531380 3.2153827069 -1.1030944593	  C3      1    UNL1	 -0.480905
     886     C	 -3.9581746214 -1.9839380018 -1.1030944593	  C3      1    UNL1	 -0.637423
     887     C	 0.1957238865 1.4304754522 -2.0821499263	  C3      1    UNL1	  0.038136
     888     C	 -0.4392845243 2.3044895482 -2.0821499263	  C3      1    UNL1	 -0.070742
     889     C	 -1.3748871330 2.8446599662 -2.0821499263	  C3      1    UNL1	 -0.221411
     890     C	 -2.4493097488 2.9575863336 -2.0821499263	  C3      1    UNL1	 -0.394436
     891     C	 -3.4767749407 -1.8762573444 -2.0821499263	  C3      1    UNL1	 -0.559899
     892     C	 -0.5554947925 1.4162943118 -2.8802832556	  C3      1    UNL1	 -0.089457
     893     C	 -1.3766659653 2.1278431835 -2.8802832556	  C3      1    UNL1	 -0.221698
     894     C	 -2.4521714792 2.2824775315 -2.8802832556	  C3      1    UNL1	 -0.394897
     895     C	 -3.4405459326 -1.0836167317 -2.8802832556	  C3      1    UNL1	 -0.554064
     896     C	 -1.6647066200 1.2623370537 -3.4012277886	  C3      1    UNL1	 -0.268084
     897     C	 -2.6907670500 1.2623370537 -3.4012277886	  C3      1    UNL1	 -0.433320
     898     C	 -3.2037972650 0.3737426556 -3.4012277886	  C3      1    UNL1	 -0.515939
     899     C	 -2.6907670500 -0.5148517426 -3.4012277886	  C3      1    UNL1	 -0.433320
     900     C	 -2.1777368350 0.3737426556 -3.5821499263	  C3      1    UNL1	 -0.350702
     901     C	 -1.0554823492 -2.3439012635 1.3032324957	  C3      1    UNL1	 -0.169975
     902     C	 -1.8052612318 -2.9126662526 0.7822879627	  C3      1    UNL1	 -0.290719
     903     C	 -0.8168867784 -3.3640417412 0.7822879627	  C3      1    UNL1	 -0.131551
     904     C	 -2.6443399419 -2.9824177467 -0.0158453667	  C3      1    UNL1	 -0.425844
     905     C	 -1.8414902399 -3.7053068653 -0.0158453667	  C3      1    UNL1	 -0.296553
     906     C	 -0.8140250481 -4.0391505433 -0.0158453667	  C3      1    UNL1	 -0.131090
     907     C	 0.2603975678 -3.9262241759 -0.0158453667	  C3      1    UNL1	  0.050737
     908     C	 -3.0543534153 -3.0106102916 -0.9949008337	  C3      1    UNL1	 -0.491872
     909     C	 -2.3228899206 -3.8129875227 -0.9949008337	  C3      1    UNL1	 -0.374078
     910     C	 -0.2698523470 -4.3971270756 -0.9949008337	  C3      1    UNL1	 -0.043457
     911     C	 0.7744476315 1.1893843833 -2.0367898997	  C3      1    UNL1	  0.150896
     912     C	 -3.4465707229 -1.9981807146 -2.0367898997	  C3      1    UNL1	 -0.555035
     913     C	 1.1960001764 0.4754400274 -3.0158453667	  C3      1    UNL1	  0.233033
     914     C	 0.2603975678 1.0156104453 -3.0158453667	  C3      1    UNL1	  0.050737
     915     C	 1.3859106948 -1.4553068653 -3.8139786961	  C3      1    UNL1	  0.270036
     916     C	 1.0797899083 -0.4127552090 -3.8139786961	  C3      1    UNL1	  0.210390
     917     C	 0.2586187355 0.2987936627 -3.8139786961	  C3      1    UNL1	  0.050390
     918     C	 -0.8168867784 0.4534280106 -3.8139786961	  C3      1    UNL1	 -0.131551
     919     C	 -1.8052612318 0.0020525220 -3.8139786961	  C3      1    UNL1	 -0.290719
     920     C	 -2.3927027193 -0.9120242749 -3.8139786961	  C3      1    UNL1	 -0.385320
     921     C	 0.4836082957 -1.4553068653 -4.3349232291	  C3      1    UNL1	  0.094228
     922     C	 -0.0294219192 -0.5667124671 -4.3349232291	  C3      1    UNL1	 -0.004738
     923     C	 -1.0554823492 -0.5667124671 -4.3349232291	  C3      1    UNL1	 -0.169975
