@<TRIPOS>MOLECULE
*****
 605 0 0 0 0
SMALL
GASTEIGER

@<TRIPOS>ATOM
      1     C	-1.6502042396  1.7183783716  3.4367567431	  C3      1    UNL1	 -0.010349
      2     C	-3.6344166704  1.7183783716  3.4367567431	  C3      1    UNL1	 -0.019183
      3     C	-4.6265228858  0.0000000000  3.4367567431	  C3      1    UNL1	 -0.020570
      4     C	-4.8929074982  2.5973274458  1.9842124308	  C3      1    UNL1	 -0.021436
      5     C	-5.9398544021  0.9682462645  1.9842124308	  C3      1    UNL1	 -0.027236
      6     C	-5.9398544021 -0.9682462645  1.9842124308	  C3      1    UNL1	 -0.024212
      7     C	-5.6127191172  2.6315524432  0.0000000000	  C3      1    UNL1	 -0.021035
      8     C	-6.4954201024  0.9497062319  0.0000000000	  C3      1    UNL1	 -0.028471
      9     C	-6.4954201024 -0.9497062319  0.0000000000	  C3      1    UNL1	 -0.027982
     10     C	-5.6127191172 -2.6315524432  0.0000000000	  C3      1    UNL1	 -0.019103
     11     C	-5.9398544021  0.9682462645 -1.9842124308	  C3      1    UNL1	 -0.025181
     12     C	-5.9398544021 -0.9682462645 -1.9842124308	  C3      1    UNL1	 -0.027132
     13     C	-4.8929074982 -2.5973274458 -1.9842124308	  C3      1    UNL1	 -0.020489
     14     C	-4.6265228858  0.0000000000 -3.4367567431	  C3      1    UNL1	 -0.021126
     15     C	-3.6344166704 -1.7183783716 -3.4367567431	  C3      1    UNL1	 -0.019032
     16     C	-1.6502042396 -1.7183783716 -3.4367567431	  C3      1    UNL1	 -0.010252
     17     C	 4.6265228858  0.0000000000  3.4367567431	  C3      1    UNL1	 -0.020202
     18     C	 3.6344166704  1.7183783716  3.4367567431	  C3      1    UNL1	 -0.018400
     19     C	 1.6502042396  1.7183783716  3.4367567431	  C3      1    UNL1	 -0.009676
     20     C	 6.0790671981  0.0000000000  1.9842124308	  C3      1    UNL1	 -0.026720
     21     C	 5.5334942067  1.8580509750  1.9842124308	  C3      1    UNL1	 -0.024480
     22     C	 4.0699908021  3.1261838938  1.9842124308	  C3      1    UNL1	 -0.014028
     23     C	 5.5334942067 -1.8580509750  1.9842124308	  C3      1    UNL1	 -0.019766
     24     C	 6.6107353166  0.0000000000  0.0000000000	  C3      1    UNL1	 -0.028734
     25     C	 6.1561761610  1.8442189897  0.0000000000	  C3      1    UNL1	 -0.024559
     26     C	 6.1561761610 -1.8442189897  0.0000000000	  C3      1    UNL1	 -0.025344
     27     C	 6.0790671981  0.0000000000 -1.9842124308	  C3      1    UNL1	 -0.026596
     28     C	 5.5334942067  1.8580509750 -1.9842124308	  C3      1    UNL1	 -0.018327
     29     C	 4.0699908021 -3.1261838938 -1.9842124308	  C3      1    UNL1	 -0.014413
     30     C	 5.5334942067 -1.8580509750 -1.9842124308	  C3      1    UNL1	 -0.024797
     31     C	 4.6265228858  0.0000000000 -3.4367567431	  C3      1    UNL1	 -0.020349
     32     C	 1.6502042396 -1.7183783716 -3.4367567431	  C3      1    UNL1	 -0.009607
     33     C	 3.6344166704 -1.7183783716 -3.4367567431	  C3      1    UNL1	 -0.018523
     34     C	 2.8323197462  5.1465926608  1.1998384231	  C3      1    UNL1	  0.010741
     35     C	 5.2750309192  3.3718591100 -0.3875315215	  C3      1    UNL1	 -0.008153
     36     C	 4.5686355570  5.3126644169 -0.3875315215	  C3      1    UNL1	  0.007385
     37     C	 2.7799797111  6.3453453510 -0.3875315215	  C3      1    UNL1	  0.015632
     38     C	 0.7459953304  5.9866990264 -0.3875315215	  C3      1    UNL1	  0.024600
     39     C	 5.2750309192  3.3718591100 -2.3496286785	  C3      1    UNL1	 -0.000747
     40     C	 4.5686355570  5.3126644169 -2.3496286785	  C3      1    UNL1	  0.010018
     41     C	 2.7799797111  6.3453453510 -2.3496286785	  C3      1    UNL1	  0.016949
     42     C	 0.7459953304  5.9866990264 -2.3496286785	  C3      1    UNL1	  0.025105
     43     C	 4.1217391468  3.3718591100 -3.9369986231	  C3      1    UNL1	  0.007261
     44     C	 2.8323197462  5.1465926608 -3.9369986231	  C3      1    UNL1	  0.016196
     45     C	 0.7459953304  4.4687047654 -3.9369986231	  C3      1    UNL1	  0.025323
     46     C	 2.2556738600  3.3718591100 -4.5433199893	  C3      1    UNL1	  0.015859
     47     C	-3.7653523896  4.4687047654  1.1998384231	  C3      1    UNL1	  0.000244
     48     C	-1.7313680089  6.3453453510 -0.3875315215	  C3      1    UNL1	  0.016844
     49     C	-3.7653523896  5.9866990264 -0.3875315215	  C3      1    UNL1	  0.008101
     50     C	-5.0929414081  4.4045400441 -0.3875315215	  C3      1    UNL1	 -0.002277
     51     C	-1.7313680089  6.3453453510 -2.3496286785	  C3      1    UNL1	  0.017579
     52     C	-3.7653523896  5.9866990264 -2.3496286785	  C3      1    UNL1	  0.009683
     53     C	-5.0929414081  4.4045400441 -2.3496286785	  C3      1    UNL1	  0.001604
     54     C	-5.0929414081  2.3391781759 -2.3496286785	  C3      1    UNL1	 -0.012820
     55     C	-1.6790279738  5.1465926608 -3.9369986231	  C3      1    UNL1	  0.017794
     56     C	-3.7653523896  4.4687047654 -3.9369986231	  C3      1    UNL1	  0.008333
     57     C	-2.2556738600  3.3718591100 -4.5433199893	  C3      1    UNL1	  0.013415
     58     C	-2.2556738600 -3.3718591100  4.5433199893	  C3      1    UNL1	  0.016555
     59     C	-3.7653523896 -4.4687047654  3.9369986231	  C3      1    UNL1	  0.012314
     60     C	-1.6790279738 -5.1465926608  3.9369986231	  C3      1    UNL1	  0.021094
     61     C	-5.0929414081 -2.3391781759  2.3496286785	  C3      1    UNL1	 -0.009909
     62     C	-5.0929414081 -4.4045400441  2.3496286785	  C3      1    UNL1	  0.005682
     63     C	-3.7653523896 -5.9866990264  2.3496286785	  C3      1    UNL1	  0.013957
     64     C	-1.7313680089 -6.3453453510  2.3496286785	  C3      1    UNL1	  0.020992
     65     C	-5.0929414081 -4.4045400441  0.3875315215	  C3      1    UNL1	  0.001460
     66     C	-3.7653523896 -5.9866990264  0.3875315215	  C3      1    UNL1	  0.012143
     67     C	-1.7313680089 -6.3453453510  0.3875315215	  C3      1    UNL1	  0.020135
     68     C	-3.7653523896 -4.4687047654 -1.1998384231	  C3      1    UNL1	  0.003274
     69     C	 2.2556738600 -3.3718591100  4.5433199893	  C3      1    UNL1	  0.013948
     70     C	 4.1217391468 -3.3718591100  3.9369986231	  C3      1    UNL1	  0.003942
     71     C	 0.7459953304 -4.4687047654  3.9369986231	  C3      1    UNL1	  0.024385
     72     C	 2.8323197462 -5.1465926608  3.9369986231	  C3      1    UNL1	  0.012385
     73     C	 5.2750309192 -3.3718591100  2.3496286785	  C3      1    UNL1	 -0.004405
     74     C	 0.7459953304 -5.9866990264  2.3496286785	  C3      1    UNL1	  0.023409
     75     C	 2.7799797111 -6.3453453510  2.3496286785	  C3      1    UNL1	  0.012744
     76     C	 4.5686355570 -5.3126644169  2.3496286785	  C3      1    UNL1	  0.005320
     77     C	 5.2750309192 -3.3718591100  0.3875315215	  C3      1    UNL1	 -0.011187
     78     C	 0.7459953304 -5.9866990264  0.3875315215	  C3      1    UNL1	  0.023419
     79     C	 2.7799797111 -6.3453453510  0.3875315215	  C3      1    UNL1	  0.011887
     80     C	 4.5686355570 -5.3126644169  0.3875315215	  C3      1    UNL1	  0.003161
     81     C	 2.8323197462 -5.1465926608 -1.1998384231	  C3      1    UNL1	  0.008502
     82     C	 2.3035690954  3.6790315316  2.5842159981	  C3      1    UNL1	 -0.000661
     83     C	 0.3193566646  3.6790315316  2.5842159981	  C3      1    UNL1	  0.007150
     84     C	 4.2026466317  3.8187041350  1.1316716858	  C3      1    UNL1	 -0.004539
     85     C	 0.8223613999  5.3624286749  1.1316716858	  C3      1    UNL1	  0.018808
     86     C	 4.7482196231  1.9606531600 -2.8367531758	  C3      1    UNL1	 -0.010237
     87     C	 3.2956753108  1.9606531600 -4.2892974881	  C3      1    UNL1	  0.003366
     88     C	 0.3193566646  3.6790315316 -4.2892974881	  C3      1    UNL1	  0.023744
     89     C	 0.3193566646  0.2422747884 -4.2892974881	  C3      1    UNL1	  0.004111
     90     C	 2.3035690954  0.2422747884 -4.2892974881	  C3      1    UNL1	 -0.004496
     91     C	 1.3114628800  1.9606531600 -4.8209656066	  C3      1    UNL1	  0.011782
     92     C	-0.3193566646  3.6790315316  2.5842159981	  C3      1    UNL1	  0.007090
     93     C	-2.3035690954  3.6790315316  2.5842159981	  C3      1    UNL1	 -0.001415
     94     C	-1.8005643601  5.3624286749  1.1316716858	  C3      1    UNL1	  0.014028
     95     C	-0.3193566646  3.6790315316 -4.2892974881	  C3      1    UNL1	  0.023244
     96     C	-3.2956753108  1.9606531600 -4.2892974881	  C3      1    UNL1	  0.001555
     97     C	-2.3035690954  0.2422747884 -4.2892974881	  C3      1    UNL1	 -0.004799
     98     C	-0.3193566646  0.2422747884 -4.2892974881	  C3      1    UNL1	  0.004130
     99     C	-1.3114628800  1.9606531600 -4.8209656066	  C3      1    UNL1	  0.011143
    100     C	-1.3114628800 -1.9606531600  4.8209656066	  C3      1    UNL1	  0.012778
    101     C	-0.3193566646 -0.2422747884  4.2892974881	  C3      1    UNL1	  0.005371
    102     C	-2.3035690954 -0.2422747884  4.2892974881	  C3      1    UNL1	 -0.004167
    103     C	-3.2956753108 -1.9606531600  4.2892974881	  C3      1    UNL1	  0.003775
    104     C	-0.3193566646 -3.6790315316  4.2892974881	  C3      1    UNL1	  0.024903
    105     C	-1.8005643601 -5.3624286749 -1.1316716858	  C3      1    UNL1	  0.016815
    106     C	-2.3035690954 -3.6790315316 -2.5842159981	  C3      1    UNL1	 -0.000314
    107     C	-0.3193566646 -3.6790315316 -2.5842159981	  C3      1    UNL1	  0.008350
    108     C	 1.3114628800 -1.9606531600  4.8209656066	  C3      1    UNL1	  0.012601
    109     C	 3.2956753108 -1.9606531600  4.2892974881	  C3      1    UNL1	  0.002545
    110     C	 2.3035690954 -0.2422747884  4.2892974881	  C3      1    UNL1	 -0.003201
    111     C	 0.3193566646 -0.2422747884  4.2892974881	  C3      1    UNL1	  0.005683
    112     C	 0.3193566646 -3.6790315316  4.2892974881	  C3      1    UNL1	  0.024372
    113     C	 4.7482196231 -1.9606531600  2.8367531758	  C3      1    UNL1	 -0.012076
    114     C	 0.8223613999 -5.3624286749 -1.1316716858	  C3      1    UNL1	  0.018864
    115     C	 4.2026466317 -3.8187041350 -1.1316716858	  C3      1    UNL1	 -0.006529
    116     C	 0.3193566646 -3.6790315316 -2.5842159981	  C3      1    UNL1	  0.008530
    117     C	 2.3035690954 -3.6790315316 -2.5842159981	  C3      1    UNL1	 -0.000066
    118     C	-1.6584047308  1.7041747042  4.0862025770	  C3      1    UNL1	 -0.007057
    119     C	-3.6262161792  1.7041747042  4.0862025770	  C3      1    UNL1	 -0.013157
    120     C	-4.6101219034  0.0000000000  4.0862025770	  C3      1    UNL1	 -0.013582
    121     C	-4.9643639125  2.6797925439  2.8277399207	  C3      1    UNL1	 -0.015807
    122     C	-6.0445513611  0.9989880654  2.8277399207	  C3      1    UNL1	 -0.019509
    123     C	-6.0445513611 -0.9989880654  2.8277399207	  C3      1    UNL1	 -0.016434
    124     C	-5.3991530321  3.4569712489  1.0092086932	  C3      1    UNL1	 -0.012930
    125     C	-6.6260634022  1.9184743070  1.0092086932	  C3      1    UNL1	 -0.020168
    126     C	-7.0639426435  0.0000000000  1.0092086932	  C3      1    UNL1	 -0.021693
    127     C	-6.6260634022 -1.9184743070  1.0092086932	  C3      1    UNL1	 -0.017531
    128     C	-6.6260634022  1.9184743070 -1.0092086932	  C3      1    UNL1	 -0.018729
    129     C	-7.0639426435  0.0000000000 -1.0092086932	  C3      1    UNL1	 -0.021855
    130     C	-6.6260634022 -1.9184743070 -1.0092086932	  C3      1    UNL1	 -0.019481
    131     C	-5.3991530321 -3.4569712489 -1.0092086932	  C3      1    UNL1	 -0.011070
    132     C	-6.0445513611  0.9989880654 -2.8277399207	  C3      1    UNL1	 -0.017436
    133     C	-6.0445513611 -0.9989880654 -2.8277399207	  C3      1    UNL1	 -0.019539
    134     C	-4.9643639125 -2.6797925439 -2.8277399207	  C3      1    UNL1	 -0.015171
    135     C	-4.6101219034  0.0000000000 -4.0862025770	  C3      1    UNL1	 -0.014182
    136     C	-3.6262161792 -1.7041747042 -4.0862025770	  C3      1    UNL1	 -0.013112
    137     C	-1.6584047308 -1.7041747042 -4.0862025770	  C3      1    UNL1	 -0.007058
    138     C	 4.6101219034  0.0000000000  4.0862025770	  C3      1    UNL1	 -0.013408
    139     C	 3.6262161792  1.7041747042  4.0862025770	  C3      1    UNL1	 -0.012546
    140     C	 1.6584047308  1.7041747042  4.0862025770	  C3      1    UNL1	 -0.006506
    141     C	 6.1881841608  0.0000000000  2.8277399207	  C3      1    UNL1	 -0.018878
    142     C	 5.6252892370  1.9170440589  2.8277399207	  C3      1    UNL1	 -0.017726
    143     C	 4.1153196266  3.2254401743  2.8277399207	  C3      1    UNL1	 -0.010889
    144     C	 5.6252892370 -1.9170440589  2.8277399207	  C3      1    UNL1	 -0.012898
    145     C	 7.0639426435  0.0000000000  1.0092086932	  C3      1    UNL1	 -0.021484
    146     C	 6.6260634022  1.9184743070  1.0092086932	  C3      1    UNL1	 -0.019236
    147     C	 5.3991530321  3.4569712489  1.0092086932	  C3      1    UNL1	 -0.011021
    148     C	 6.6260634022 -1.9184743070  1.0092086932	  C3      1    UNL1	 -0.018344
    149     C	 7.0639426435  0.0000000000 -1.0092086932	  C3      1    UNL1	 -0.021393
    150     C	 6.6260634022  1.9184743070 -1.0092086932	  C3      1    UNL1	 -0.017384
    151     C	 5.3991530321 -3.4569712489 -1.0092086932	  C3      1    UNL1	 -0.012513
    152     C	 6.6260634022 -1.9184743070 -1.0092086932	  C3      1    UNL1	 -0.019763
    153     C	 6.1881841608  0.0000000000 -2.8277399207	  C3      1    UNL1	 -0.018697
    154     C	 5.6252892370  1.9170440589 -2.8277399207	  C3      1    UNL1	 -0.011495
    155     C	 4.1153196266 -3.2254401743 -2.8277399207	  C3      1    UNL1	 -0.011148
    156     C	 5.6252892370 -1.9170440589 -2.8277399207	  C3      1    UNL1	 -0.017967
    157     C	 4.6101219034  0.0000000000 -4.0862025770	  C3      1    UNL1	 -0.013456
    158     C	 1.6584047308 -1.7041747042 -4.0862025770	  C3      1    UNL1	 -0.006702
    159     C	 3.6262161792 -1.7041747042 -4.0862025770	  C3      1    UNL1	 -0.012731
    160     C	 4.7977489327  5.2187847597  0.4455569796	  C3      1    UNL1	  0.003157
    161     C	 3.2266601358  6.3602475859  0.4455569796	  C3      1    UNL1	  0.010546
    162     C	 1.2846875842  6.3602475859  0.4455569796	  C3      1    UNL1	  0.016765
    163     C	 5.8839480192  3.3718591100 -1.3685801000	  C3      1    UNL1	 -0.006124
    164     C	 5.3978514537  5.1859961896 -1.3685801000	  C3      1    UNL1	  0.004221
    165     C	 4.0698109396  6.5140367037 -1.3685801000	  C3      1    UNL1	  0.010283
    166     C	 2.2556738600  7.0001332692 -1.3685801000	  C3      1    UNL1	  0.015200
    167     C	 0.4415367804  6.5140367037 -1.3685801000	  C3      1    UNL1	  0.021423
    168     C	 5.3978514537  3.3718591100 -3.1827171796	  C3      1    UNL1	  0.000043
    169     C	 4.7977489327  5.2187847597 -3.1827171796	  C3      1    UNL1	  0.007736
    170     C	 3.2266601358  6.3602475859 -3.1827171796	  C3      1    UNL1	  0.013078
    171     C	 1.2846875842  6.3602475859 -3.1827171796	  C3      1    UNL1	  0.018385
    172     C	 4.0698109396  3.3718591100 -4.5107576937	  C3      1    UNL1	  0.006152
    173     C	 3.1627423998  4.9429479069 -4.5107576937	  C3      1    UNL1	  0.012125
    174     C	 1.3486053202  4.9429479069 -4.5107576937	  C3      1    UNL1	  0.017678
    175     C	-1.2846875842  6.3602475859  0.4455569796	  C3      1    UNL1	  0.015198
    176     C	-3.2266601358  6.3602475859  0.4455569796	  C3      1    UNL1	  0.007958
    177     C	-4.7977489327  5.2187847597  0.4455569796	  C3      1    UNL1	  0.000371
    178     C	-0.4415367804  6.5140367037 -1.3685801000	  C3      1    UNL1	  0.020602
    179     C	-2.2556738600  7.0001332692 -1.3685801000	  C3      1    UNL1	  0.012743
    180     C	-4.0698109396  6.5140367037 -1.3685801000	  C3      1    UNL1	  0.007199
    181     C	-5.3978514537  5.1859961896 -1.3685801000	  C3      1    UNL1	  0.001091
    182     C	-5.8839480192  3.3718591100 -1.3685801000	  C3      1    UNL1	 -0.008811
    183     C	-1.2846875842  6.3602475859 -3.1827171796	  C3      1    UNL1	  0.016568
    184     C	-3.2266601358  6.3602475859 -3.1827171796	  C3      1    UNL1	  0.010182
    185     C	-4.7977489327  5.2187847597 -3.1827171796	  C3      1    UNL1	  0.004595
    186     C	-5.3978514537  3.3718591100 -3.1827171796	  C3      1    UNL1	 -0.002722
    187     C	-1.3486053202  4.9429479069 -4.5107576937	  C3      1    UNL1	  0.015987
    188     C	-3.1627423998  4.9429479069 -4.5107576937	  C3      1    UNL1	  0.009478
    189     C	-4.0698109396  3.3718591100 -4.5107576937	  C3      1    UNL1	  0.003649
    190     C	-4.0698109396 -3.3718591100  4.5107576937	  C3      1    UNL1	  0.006458
    191     C	-3.1627423998 -4.9429479069  4.5107576937	  C3      1    UNL1	  0.012512
    192     C	-1.3486053202 -4.9429479069  4.5107576937	  C3      1    UNL1	  0.018266
    193     C	-5.3978514537 -3.3718591100  3.1827171796	  C3      1    UNL1	  0.000177
    194     C	-4.7977489327 -5.2187847597  3.1827171796	  C3      1    UNL1	  0.007964
    195     C	-3.2266601358 -6.3602475859  3.1827171796	  C3      1    UNL1	  0.013406
    196     C	-1.2846875842 -6.3602475859  3.1827171796	  C3      1    UNL1	  0.018816
    197     C	-5.8839480192 -3.3718591100  1.3685801000	  C3      1    UNL1	 -0.006093
    198     C	-5.3978514537 -5.1859961896  1.3685801000	  C3      1    UNL1	  0.004378
    199     C	-4.0698109396 -6.5140367037  1.3685801000	  C3      1    UNL1	  0.010549
    200     C	-2.2556738600 -7.0001332692  1.3685801000	  C3      1    UNL1	  0.015582
    201     C	-0.4415367804 -6.5140367037  1.3685801000	  C3      1    UNL1	  0.021894
    202     C	-4.7977489327 -5.2187847597 -0.4455569796	  C3      1    UNL1	  0.003327
    203     C	-3.2266601358 -6.3602475859 -0.4455569796	  C3      1    UNL1	  0.010893
    204     C	-1.2846875842 -6.3602475859 -0.4455569796	  C3      1    UNL1	  0.017371
    205     C	 4.0698109396 -3.3718591100  4.5107576937	  C3      1    UNL1	  0.003794
    206     C	 1.3486053202 -4.9429479069  4.5107576937	  C3      1    UNL1	  0.016226
    207     C	 3.1627423998 -4.9429479069  4.5107576937	  C3      1    UNL1	  0.009343
    208     C	 5.3978514537 -3.3718591100  3.1827171796	  C3      1    UNL1	 -0.002738
    209     C	 1.2846875842 -6.3602475859  3.1827171796	  C3      1    UNL1	  0.016508
    210     C	 3.2266601358 -6.3602475859  3.1827171796	  C3      1    UNL1	  0.009786
    211     C	 4.7977489327 -5.2187847597  3.1827171796	  C3      1    UNL1	  0.004212
    212     C	 5.8839480192 -3.3718591100  1.3685801000	  C3      1    UNL1	 -0.008764
    213     C	 0.4415367804 -6.5140367037  1.3685801000	  C3      1    UNL1	  0.020855
    214     C	 2.2556738600 -7.0001332692  1.3685801000	  C3      1    UNL1	  0.012503
    215     C	 4.0698109396 -6.5140367037  1.3685801000	  C3      1    UNL1	  0.006775
    216     C	 5.3978514537 -5.1859961896  1.3685801000	  C3      1    UNL1	  0.000757
    217     C	 1.2846875842 -6.3602475859 -0.4455569796	  C3      1    UNL1	  0.015542
    218     C	 3.2266601358 -6.3602475859 -0.4455569796	  C3      1    UNL1	  0.007882
    219     C	 4.7977489327 -5.2187847597 -0.4455569796	  C3      1    UNL1	  0.000301
    220     C	 2.2953686042  3.6648278642  3.2336618320	  C3      1    UNL1	 -0.002239
    221     C	 0.3275571558  3.6648278642  3.2336618320	  C3      1    UNL1	  0.003001
    222     C	 4.2944416620  3.8776972189  1.9751991757	  C3      1    UNL1	 -0.006404
    223     C	 2.7844720516  5.1860933343  1.9751991757	  C3      1    UNL1	  0.006119
    224     C	 0.8068324370  5.4704349842  1.9751991757	  C3      1    UNL1	  0.011708
    225     C	 0.3275571558  6.2714257980  0.1566679482	  C3      1    UNL1	  0.019550
    226     C	 4.8573365858  1.9606531600 -3.6802806657	  C3      1    UNL1	 -0.005671
    227     C	 3.2792743284  1.9606531600 -4.9387433220	  C3      1    UNL1	  0.003033
    228     C	 0.3275571558  3.6648278642 -4.9387433220	  C3      1    UNL1	  0.017209
    229     C	 0.3275571558  0.2564784558 -4.9387433220	  C3      1    UNL1	  0.003191
    230     C	 2.2953686042  0.2564784558 -4.9387433220	  C3      1    UNL1	 -0.002017
    231     C	 1.3114628800  1.9606531600 -5.3878834440	  C3      1    UNL1	  0.008731
    232     C	-0.3275571558  3.6648278642  3.2336618320	  C3      1    UNL1	  0.002925
    233     C	-2.2953686042  3.6648278642  3.2336618320	  C3      1    UNL1	 -0.002850
    234     C	-1.8160933230  5.4704349842  1.9751991757	  C3      1    UNL1	  0.008396
    235     C	-3.6335163375  4.6404457039  1.9751991757	  C3      1    UNL1	 -0.000840
    236     C	-0.3275571558  6.2714257980  0.1566679482	  C3      1    UNL1	  0.019054
    237     C	-0.3275571558  3.6648278642 -4.9387433220	  C3      1    UNL1	  0.016868
    238     C	-3.2792743284  1.9606531600 -4.9387433220	  C3      1    UNL1	  0.001640
    239     C	-2.2953686042  0.2564784558 -4.9387433220	  C3      1    UNL1	 -0.002413
    240     C	-0.3275571558  0.2564784558 -4.9387433220	  C3      1    UNL1	  0.003156
    241     C	-1.3114628800  1.9606531600 -5.3878834440	  C3      1    UNL1	  0.008175
    242     C	-1.3114628800 -1.9606531600  5.3878834440	  C3      1    UNL1	  0.009512
    243     C	-0.3275571558 -0.2564784558  4.9387433220	  C3      1    UNL1	  0.004127
    244     C	-2.2953686042 -0.2564784558  4.9387433220	  C3      1    UNL1	 -0.001691
    245     C	-3.2792743284 -1.9606531600  4.9387433220	  C3      1    UNL1	  0.003404
    246     C	-0.3275571558 -3.6648278642  4.9387433220	  C3      1    UNL1	  0.018095
    247     C	-0.3275571558 -6.2714257980 -0.1566679482	  C3      1    UNL1	  0.020216
    248     C	-3.6335163375 -4.6404457039 -1.9751991757	  C3      1    UNL1	  0.001145
    249     C	-1.8160933230 -5.4704349842 -1.9751991757	  C3      1    UNL1	  0.010158
    250     C	-2.2953686042 -3.6648278642 -3.2336618320	  C3      1    UNL1	 -0.002046
    251     C	-0.3275571558 -3.6648278642 -3.2336618320	  C3      1    UNL1	  0.003769
    252     C	 1.3114628800 -1.9606531600  5.3878834440	  C3      1    UNL1	  0.009244
    253     C	 3.2792743284 -1.9606531600  4.9387433220	  C3      1    UNL1	  0.002432
    254     C	 2.2953686042 -0.2564784558  4.9387433220	  C3      1    UNL1	 -0.001268
    255     C	 0.3275571558 -0.2564784558  4.9387433220	  C3      1    UNL1	  0.004270
    256     C	 0.3275571558 -3.6648278642  4.9387433220	  C3      1    UNL1	  0.017740
    257     C	 4.8573365858 -1.9606531600  3.6802806657	  C3      1    UNL1	 -0.007095
    258     C	 0.3275571558 -6.2714257980 -0.1566679482	  C3      1    UNL1	  0.019629
    259     C	 0.8068324370 -5.4704349842 -1.9751991757	  C3      1    UNL1	  0.012023
    260     C	 2.7844720516 -5.1860933343 -1.9751991757	  C3      1    UNL1	  0.005094
    261     C	 4.2944416620 -3.8776972189 -1.9751991757	  C3      1    UNL1	 -0.007386
    262     C	 0.3275571558 -3.6648278642 -3.2336618320	  C3      1    UNL1	  0.003863
    263     C	 2.2953686042 -3.6648278642 -3.2336618320	  C3      1    UNL1	 -0.001882
    264     C	-1.6660351676  1.6909584000  4.7138740791	  C3      1    UNL1	 -0.004832
    265     C	-3.6185857424  1.6909584000  4.7138740791	  C3      1    UNL1	 -0.009161
    266     C	-4.5948610299  0.0000000000  4.7138740791	  C3      1    UNL1	 -0.009107
    267     C	-5.0049451861  2.7266258302  3.6078430246	  C3      1    UNL1	 -0.011745
    268     C	-6.1040104870  1.0164468400  3.6078430246	  C3      1    UNL1	 -0.014128
    269     C	-6.1040104870 -1.0164468400  3.6078430246	  C3      1    UNL1	 -0.011296
    270     C	-5.5813628705  3.6854551594  1.9525505749	  C3      1    UNL1	 -0.010419
    271     C	-6.8893642474  2.0452733111  1.9525505749	  C3      1    UNL1	 -0.015448
    272     C	-7.3561845341  0.0000000000  1.9525505749	  C3      1    UNL1	 -0.016177
    273     C	-6.8893642474 -2.0452733111  1.9525505749	  C3      1    UNL1	 -0.012155
    274     C	-6.2501534796  3.6078430246  0.0000000000	  C3      1    UNL1	 -0.010126
    275     C	-7.3561845341  1.9525505749  0.0000000000	  C3      1    UNL1	 -0.015682
    276     C	-7.7445709913  0.0000000000  0.0000000000	  C3      1    UNL1	 -0.017175
    277     C	-7.3561845341 -1.9525505749  0.0000000000	  C3      1    UNL1	 -0.014921
    278     C	-6.2501534796 -3.6078430246  0.0000000000	  C3      1    UNL1	 -0.008212
    279     C	-6.8893642474  2.0452733111 -1.9525505749	  C3      1    UNL1	 -0.013396
    280     C	-7.3561845341  0.0000000000 -1.9525505749	  C3      1    UNL1	 -0.016443
    281     C	-6.8893642474 -2.0452733111 -1.9525505749	  C3      1    UNL1	 -0.014990
    282     C	-5.5813628705 -3.6854551594 -1.9525505749	  C3      1    UNL1	 -0.009171
    283     C	-6.1040104870  1.0164468400 -3.6078430246	  C3      1    UNL1	 -0.012257
    284     C	-6.1040104870 -1.0164468400 -3.6078430246	  C3      1    UNL1	 -0.014250
    285     C	-5.0049451861 -2.7266258302 -3.6078430246	  C3      1    UNL1	 -0.011324
    286     C	-4.5948610299  0.0000000000 -4.7138740791	  C3      1    UNL1	 -0.009710
    287     C	-3.6185857424 -1.6909584000 -4.7138740791	  C3      1    UNL1	 -0.009205
    288     C	-1.6660351676 -1.6909584000 -4.7138740791	  C3      1    UNL1	 -0.004922
    289     C	 4.5948610299  0.0000000000  4.7138740791	  C3      1    UNL1	 -0.009066
    290     C	 3.6185857424  1.6909584000  4.7138740791	  C3      1    UNL1	 -0.008712
    291     C	 1.6660351676  1.6909584000  4.7138740791	  C3      1    UNL1	 -0.004429
    292     C	 6.2501534796  0.0000000000  3.6078430246	  C3      1    UNL1	 -0.013508
    293     C	 5.6774211454  1.9505472021  3.6078430246	  C3      1    UNL1	 -0.012984
    294     C	 4.1410626120  3.2818094494  3.6078430246	  C3      1    UNL1	 -0.008356
    295     C	 5.6774211454 -1.9505472021  3.6078430246	  C3      1    UNL1	 -0.008553
    296     C	 7.3561845341  0.0000000000  1.9525505749	  C3      1    UNL1	 -0.016113
    297     C	 6.8893642474  2.0452733111  1.9525505749	  C3      1    UNL1	 -0.014754
    298     C	 5.5813628705  3.6854551594  1.9525505749	  C3      1    UNL1	 -0.009098
    299     C	 6.8893642474 -2.0452733111  1.9525505749	  C3      1    UNL1	 -0.013096
    300     C	 7.7445709913  0.0000000000  0.0000000000	  C3      1    UNL1	 -0.016908
    301     C	 7.3561845341  1.9525505749  0.0000000000	  C3      1    UNL1	 -0.014752
    302     C	 6.2501534796  3.6078430246  0.0000000000	  C3      1    UNL1	 -0.008187
    303     C	 6.2501534796 -3.6078430246  0.0000000000	  C3      1    UNL1	 -0.009939
    304     C	 7.3561845341 -1.9525505749  0.0000000000	  C3      1    UNL1	 -0.015380
    305     C	 7.3561845341  0.0000000000 -1.9525505749	  C3      1    UNL1	 -0.015955
    306     C	 6.8893642474  2.0452733111 -1.9525505749	  C3      1    UNL1	 -0.012069
    307     C	 5.5813628705 -3.6854551594 -1.9525505749	  C3      1    UNL1	 -0.010025
    308     C	 6.8893642474 -2.0452733111 -1.9525505749	  C3      1    UNL1	 -0.015125
    309     C	 6.2501534796  0.0000000000 -3.6078430246	  C3      1    UNL1	 -0.013299
    310     C	 5.6774211454  1.9505472021 -3.6078430246	  C3      1    UNL1	 -0.007336
    311     C	 4.1410626120 -3.2818094494 -3.6078430246	  C3      1    UNL1	 -0.008565
    312     C	 5.6774211454 -1.9505472021 -3.6078430246	  C3      1    UNL1	 -0.013161
    313     C	 4.5948610299  0.0000000000 -4.7138740791	  C3      1    UNL1	 -0.009049
    314     C	 1.6660351676 -1.6909584000 -4.7138740791	  C3      1    UNL1	 -0.004688
    315     C	 3.6185857424 -1.6909584000 -4.7138740791	  C3      1    UNL1	 -0.008893
    316     C	 5.2294628617  5.2829972557  0.6723241145	  C3      1    UNL1	  0.000970
    317     C	 3.7241450742  6.5873625436  0.6723241145	  C3      1    UNL1	  0.007470
    318     C	 1.7525980519  6.8708282110  0.6723241145	  C3      1    UNL1	  0.012377
    319     C	 6.3374822891  3.3718591100 -1.3685801000	  C3      1    UNL1	 -0.006724
    320     C	 5.8699357291  5.2687700708 -1.3685801000	  C3      1    UNL1	  0.002268
    321     C	 4.5744053315  6.7311215908 -1.3685801000	  C3      1    UNL1	  0.007645
    322     C	 2.7476814975  7.4239065599 -1.3685801000	  C3      1    UNL1	  0.011773
    323     C	 0.8082446431  7.1884162907 -1.3685801000	  C3      1    UNL1	  0.016229
    324     C	 5.7906236529  3.3718591100 -3.4094843145	  C3      1    UNL1	 -0.001080
    325     C	 5.2294628617  5.2829972557 -3.4094843145	  C3      1    UNL1	  0.005519
    326     C	 3.7241450742  6.5873625436 -3.4094843145	  C3      1    UNL1	  0.010107
    327     C	 1.7525980519  6.8708282110 -3.4094843145	  C3      1    UNL1	  0.014231
    328     C	 4.2965780745  3.3718591100 -4.9035298929	  C3      1    UNL1	  0.004452
    329     C	 3.2761259673  5.1393340065 -4.9035298929	  C3      1    UNL1	  0.009971
    330     C	 1.2352217527  5.1393340065 -4.9035298929	  C3      1    UNL1	  0.014832
    331     C	-2.7587496681  6.8708282110  0.6723241145	  C3      1    UNL1	  0.008090
    332     C	-4.5705736759  6.0433959114  0.6723241145	  C3      1    UNL1	  0.002343
    333     C	-5.6474333484  4.3677695535  0.6723241145	  C3      1    UNL1	 -0.006081
    334     C	-1.7636662225  7.4239065599 -1.3685801000	  C3      1    UNL1	  0.012205
    335     C	-3.7031030769  7.1884162907 -1.3685801000	  C3      1    UNL1	  0.007403
    336     C	-5.3109513411  6.0785987659 -1.3685801000	  C3      1    UNL1	  0.002651
    337     C	-6.2188723545  4.3486998057 -1.3685801000	  C3      1    UNL1	 -0.003936
    338     C	-0.7872026458  6.5873625436 -3.4094843145	  C3      1    UNL1	  0.015659
    339     C	-2.7587496681  6.8708282110 -3.4094843145	  C3      1    UNL1	  0.010023
    340     C	-4.5705736759  6.0433959114 -3.4094843145	  C3      1    UNL1	  0.005438
    341     C	-5.6474333484  4.3677695535 -3.4094843145	  C3      1    UNL1	  0.000144
    342     C	-1.2352217527  5.1393340065 -4.9035298929	  C3      1    UNL1	  0.013636
    343     C	-3.2761259673  5.1393340065 -4.9035298929	  C3      1    UNL1	  0.007878
    344     C	-4.2965780745  3.3718591100 -4.9035298929	  C3      1    UNL1	  0.002447
    345     C	-4.2965780745 -3.3718591100  4.9035298929	  C3      1    UNL1	  0.004714
    346     C	-3.2761259673 -5.1393340065  4.9035298929	  C3      1    UNL1	  0.010309
    347     C	-1.2352217527 -5.1393340065  4.9035298929	  C3      1    UNL1	  0.015333
    348     C	-5.6474333484 -4.3677695535  3.4094843145	  C3      1    UNL1	  0.002731
    349     C	-4.5705736759 -6.0433959114  3.4094843145	  C3      1    UNL1	  0.008191
    350     C	-2.7587496681 -6.8708282110  3.4094843145	  C3      1    UNL1	  0.012444
    351     C	-0.7872026458 -6.5873625436  3.4094843145	  C3      1    UNL1	  0.016974
    352     C	-6.2188723545 -4.3486998057  1.3685801000	  C3      1    UNL1	 -0.001471
    353     C	-5.3109513411 -6.0785987659  1.3685801000	  C3      1    UNL1	  0.005392
    354     C	-3.7031030769 -7.1884162907  1.3685801000	  C3      1    UNL1	  0.010028
    355     C	-1.7636662225 -7.4239065599  1.3685801000	  C3      1    UNL1	  0.014192
    356     C	-5.6474333484 -4.3677695535 -0.6723241145	  C3      1    UNL1	 -0.003931
    357     C	-4.5705736759 -6.0433959114 -0.6723241145	  C3      1    UNL1	  0.004787
    358     C	-2.7587496681 -6.8708282110 -0.6723241145	  C3      1    UNL1	  0.010316
    359     C	 4.2965780745 -3.3718591100  4.9035298929	  C3      1    UNL1	  0.002641
    360     C	 1.2352217527 -5.1393340065  4.9035298929	  C3      1    UNL1	  0.013905
    361     C	 3.2761259673 -5.1393340065  4.9035298929	  C3      1    UNL1	  0.007843
    362     C	 5.7906236529 -3.3718591100  3.4094843145	  C3      1    UNL1	 -0.003258
    363     C	 1.7525980519 -6.8708282110  3.4094843145	  C3      1    UNL1	  0.012491
    364     C	 3.7241450742 -6.5873625436  3.4094843145	  C3      1    UNL1	  0.007445
    365     C	 5.2294628617 -5.2829972557  3.4094843145	  C3      1    UNL1	  0.002754
    366     C	 6.3374822891 -3.3718591100  1.3685801000	  C3      1    UNL1	 -0.008794
    367     C	 0.8082446431 -7.1884162907  1.3685801000	  C3      1    UNL1	  0.015385
    368     C	 2.7476814975 -7.4239065599  1.3685801000	  C3      1    UNL1	  0.009506
    369     C	 4.5744053315 -6.7311215908  1.3685801000	  C3      1    UNL1	  0.004843
    370     C	 5.8699357291 -5.2687700708  1.3685801000	  C3      1    UNL1	 -0.000450
    371     C	 1.7525980519 -6.8708282110 -0.6723241145	  C3      1    UNL1	  0.011140
    372     C	 3.7241450742 -6.5873625436 -0.6723241145	  C3      1    UNL1	  0.005318
    373     C	 5.2294628617 -5.2829972557 -0.6723241145	  C3      1    UNL1	 -0.001244
    374     C	 2.2877381674  3.6516115600  3.8613333341	  C3      1    UNL1	 -0.002692
    375     C	 0.3351875926  3.6516115600  3.8613333341	  C3      1    UNL1	  0.000834
    376     C	 2.8102150370  5.2424626094  2.7553022796	  C3      1    UNL1	  0.002938
    377     C	 0.7980132834  5.5317735447  2.7553022796	  C3      1    UNL1	  0.007185
    378     C	 0.2625272174  6.5563405742  1.1000098299	  C3      1    UNL1	  0.013380
    379     C	 4.9193059046  1.9606531600 -4.4603837696	  C3      1    UNL1	 -0.003204
    380     C	 3.2640134549  1.9606531600 -5.5664148241	  C3      1    UNL1	  0.002654
    381     C	 2.2877381674  3.6516115600 -5.5664148241	  C3      1    UNL1	  0.009882
    382     C	 0.3351875926  3.6516115600 -5.5664148241	  C3      1    UNL1	  0.012726
    383     C	 0.3351875926  0.2696947600 -5.5664148241	  C3      1    UNL1	  0.002508
    384     C	 2.2877381674  0.2696947600 -5.5664148241	  C3      1    UNL1	 -0.000795
    385     C	 1.3114628800  1.9606531600 -5.9548012813	  C3      1    UNL1	  0.006597
    386     C	-0.3351875926  3.6516115600  3.8613333341	  C3      1    UNL1	  0.000758
    387     C	-2.2877381674  3.6516115600  3.8613333341	  C3      1    UNL1	 -0.003193
    388     C	-1.8249124766  5.5317735447  2.7553022796	  C3      1    UNL1	  0.004870
    389     C	-3.6740976111  4.6872789902  2.7553022796	  C3      1    UNL1	 -0.002218
    390     C	-0.2625272174  6.5563405742  1.1000098299	  C3      1    UNL1	  0.013147
    391     C	-0.3351875926  3.6516115600 -5.5664148241	  C3      1    UNL1	  0.012485
    392     C	-2.2877381674  3.6516115600 -5.5664148241	  C3      1    UNL1	  0.008503
    393     C	-3.2640134549  1.9606531600 -5.5664148241	  C3      1    UNL1	  0.001570
    394     C	-2.2877381674  0.2696947600 -5.5664148241	  C3      1    UNL1	 -0.001193
    395     C	-0.3351875926  0.2696947600 -5.5664148241	  C3      1    UNL1	  0.002454
    396     C	-1.3114628800  1.9606531600 -5.9548012813	  C3      1    UNL1	  0.006137
    397     C	-1.3114628800 -1.9606531600  5.9548012813	  C3      1    UNL1	  0.007215
    398     C	-0.3351875926 -0.2696947600  5.5664148241	  C3      1    UNL1	  0.003218
    399     C	-2.2877381674 -0.2696947600  5.5664148241	  C3      1    UNL1	 -0.000494
    400     C	-3.2640134549 -1.9606531600  5.5664148241	  C3      1    UNL1	  0.002983
    401     C	-2.2877381674 -3.6516115600  5.5664148241	  C3      1    UNL1	  0.010372
    402     C	-0.3351875926 -3.6516115600  5.5664148241	  C3      1    UNL1	  0.013420
    403     C	-0.2625272174 -6.5563405742 -1.1000098299	  C3      1    UNL1	  0.013949
    404     C	-3.6740976111 -4.6872789902 -2.7553022796	  C3      1    UNL1	 -0.000897
    405     C	-1.8249124766 -5.5317735447 -2.7553022796	  C3      1    UNL1	  0.006071
    406     C	-2.2877381674 -3.6516115600 -3.8613333341	  C3      1    UNL1	 -0.002608
    407     C	-0.3351875926 -3.6516115600 -3.8613333341	  C3      1    UNL1	  0.001313
    408     C	 1.3114628800 -1.9606531600  5.9548012813	  C3      1    UNL1	  0.006945
    409     C	 3.2640134549 -1.9606531600  5.5664148241	  C3      1    UNL1	  0.002210
    410     C	 2.2877381674 -0.2696947600  5.5664148241	  C3      1    UNL1	 -0.000344
    411     C	 0.3351875926 -0.2696947600  5.5664148241	  C3      1    UNL1	  0.003279
    412     C	 0.3351875926 -3.6516115600  5.5664148241	  C3      1    UNL1	  0.013174
    413     C	 2.2877381674 -3.6516115600  5.5664148241	  C3      1    UNL1	  0.008931
    414     C	 4.9193059046 -1.9606531600  4.4603837696	  C3      1    UNL1	 -0.004275
    415     C	 0.2625272174 -6.5563405742 -1.1000098299	  C3      1    UNL1	  0.013693
    416     C	 0.7980132834 -5.5317735447 -2.7553022796	  C3      1    UNL1	  0.007518
    417     C	 2.8102150370 -5.2424626094 -2.7553022796	  C3      1    UNL1	  0.002437
    418     C	 0.3351875926 -3.6516115600 -3.8613333341	  C3      1    UNL1	  0.001362
    419     C	 2.2877381674 -3.6516115600 -3.8613333341	  C3      1    UNL1	 -0.002509
    420     C	-1.6728238550  1.6792000484  5.3272850837	  C3      1    UNL1	 -0.003334
    421     C	-3.6117970550  1.6792000484  5.3272850837	  C3      1    UNL1	 -0.006467
    422     C	-4.5812836549  0.0000000000  5.3272850837	  C3      1    UNL1	 -0.006186
    423     C	-3.1609167715  3.6069861599  4.3428425902	  C3      1    UNL1	 -0.004840
    424     C	-5.0286737970  2.7540101070  4.3428425902	  C3      1    UNL1	 -0.008798
    425     C	-6.1387773226  1.0266553040  4.3428425902	  C3      1    UNL1	 -0.010339
    426     C	-6.1387773226 -1.0266553040  4.3428425902	  C3      1    UNL1	 -0.007857
    427     C	-5.0971367001  4.2518837803  2.8345891868	  C3      1    UNL1	 -0.006498
    428     C	-6.6143027561  2.8858213276  2.8345891868	  C3      1    UNL1	 -0.010838
    429     C	-7.4446752587  1.0207741506  2.8345891868	  C3      1    UNL1	 -0.012447
    430     C	-7.4446752587 -1.0207741506  2.8345891868	  C3      1    UNL1	 -0.010978
    431     C	-6.6143027561 -2.8858213276  2.8345891868	  C3      1    UNL1	 -0.005667
    432     C	-7.3891159281  2.9390975163  0.9844424935	  C3      1    UNL1	 -0.011291
    433     C	-8.1302992209  1.0258828953  0.9844424935	  C3      1    UNL1	 -0.013405
    434     C	-8.1302992209 -1.0258828953  0.9844424935	  C3      1    UNL1	 -0.012733
    435     C	-7.3891159281 -2.9390975163  0.9844424935	  C3      1    UNL1	 -0.008970
    436     C	-7.3891159281  2.9390975163 -0.9844424935	  C3      1    UNL1	 -0.010209
    437     C	-8.1302992209  1.0258828953 -0.9844424935	  C3      1    UNL1	 -0.013161
    438     C	-8.1302992209 -1.0258828953 -0.9844424935	  C3      1    UNL1	 -0.013218
    439     C	-7.3891159281 -2.9390975163 -0.9844424935	  C3      1    UNL1	 -0.010450
    440     C	-6.6143027561  2.8858213276 -2.8345891868	  C3      1    UNL1	 -0.007366
    441     C	-7.4446752587  1.0207741506 -2.8345891868	  C3      1    UNL1	 -0.011648
    442     C	-7.4446752587 -1.0207741506 -2.8345891868	  C3      1    UNL1	 -0.012471
    443     C	-6.6143027561 -2.8858213276 -2.8345891868	  C3      1    UNL1	 -0.010317
    444     C	-5.0971367001 -4.2518837803 -2.8345891868	  C3      1    UNL1	 -0.005465
    445     C	-6.1387773226  1.0266553040 -4.3428425902	  C3      1    UNL1	 -0.008741
    446     C	-6.1387773226 -1.0266553040 -4.3428425902	  C3      1    UNL1	 -0.010519
    447     C	-5.0286737970 -2.7540101070 -4.3428425902	  C3      1    UNL1	 -0.008530
    448     C	-3.1609167715 -3.6069861599 -4.3428425902	  C3      1    UNL1	 -0.004378
    449     C	-4.5812836549  0.0000000000 -5.3272850837	  C3      1    UNL1	 -0.006764
    450     C	-3.6117970550 -1.6792000484 -5.3272850837	  C3      1    UNL1	 -0.006574
    451     C	-1.6728238550 -1.6792000484 -5.3272850837	  C3      1    UNL1	 -0.003482
    452     C	 4.5812836549  0.0000000000  5.3272850837	  C3      1    UNL1	 -0.006230
    453     C	 3.6117970550  1.6792000484  5.3272850837	  C3      1    UNL1	 -0.006152
    454     C	 1.6728238550  1.6792000484  5.3272850837	  C3      1    UNL1	 -0.003056
    455     C	 6.2863880707  0.0000000000  4.3428425902	  C3      1    UNL1	 -0.009785
    456     C	 5.7079036231  1.9701371010  4.3428425902	  C3      1    UNL1	 -0.009618
    457     C	 4.1561150051  3.3147695928  4.3428425902	  C3      1    UNL1	 -0.006407
    458     C	 7.5519629452  0.0000000000  2.8345891868	  C3      1    UNL1	 -0.012158
    459     C	 7.1275011860  1.9969355725  2.8345891868	  C3      1    UNL1	 -0.011522
    460     C	 5.9275092028  3.6485828430  2.8345891868	  C3      1    UNL1	 -0.008087
    461     C	 7.1275011860 -1.9969355725  2.8345891868	  C3      1    UNL1	 -0.009731
    462     C	 8.2253612706  0.0000000000  0.9844424935	  C3      1    UNL1	 -0.013298
    463     C	 7.8483502959  2.0168305790  0.9844424935	  C3      1    UNL1	 -0.012032
    464     C	 6.7682347930  3.7612770127  0.9844424935	  C3      1    UNL1	 -0.007845
    465     C	 6.7682347930 -3.7612770127  0.9844424935	  C3      1    UNL1	 -0.007380
    466     C	 7.8483502959 -2.0168305790  0.9844424935	  C3      1    UNL1	 -0.011832
    467     C	 8.2253612706  0.0000000000 -0.9844424935	  C3      1    UNL1	 -0.013223
    468     C	 7.8483502959  2.0168305790 -0.9844424935	  C3      1    UNL1	 -0.011165
    469     C	 6.7682347930  3.7612770127 -0.9844424935	  C3      1    UNL1	 -0.005646
    470     C	 6.7682347930 -3.7612770127 -0.9844424935	  C3      1    UNL1	 -0.008925
    471     C	 7.8483502959 -2.0168305790 -0.9844424935	  C3      1    UNL1	 -0.012454
    472     C	 7.5519629452  0.0000000000 -2.8345891868	  C3      1    UNL1	 -0.011963
    473     C	 7.1275011860  1.9969355725 -2.8345891868	  C3      1    UNL1	 -0.008830
    474     C	 5.9275092028 -3.6485828430 -2.8345891868	  C3      1    UNL1	 -0.008657
    475     C	 7.1275011860 -1.9969355725 -2.8345891868	  C3      1    UNL1	 -0.011752
    476     C	 6.2863880707  0.0000000000 -4.3428425902	  C3      1    UNL1	 -0.009569
    477     C	 4.1561150051 -3.3147695928 -4.3428425902	  C3      1    UNL1	 -0.006582
    478     C	 5.7079036231 -1.9701371010 -4.3428425902	  C3      1    UNL1	 -0.009745
    479     C	 4.5812836549  0.0000000000 -5.3272850837	  C3      1    UNL1	 -0.006175
    480     C	 1.6728238550 -1.6792000484 -5.3272850837	  C3      1    UNL1	 -0.003305
    481     C	 3.6117970550 -1.6792000484 -5.3272850837	  C3      1    UNL1	 -0.006306
    482     C	 3.7286830316  6.5972992843  1.4591598207	  C3      1    UNL1	  0.005320
    483     C	 6.2394268072  5.2903334170 -0.3593714068	  C3      1    UNL1	 -0.000149
    484     C	 5.0125164371  6.8288303589 -0.3593714068	  C3      1    UNL1	  0.004982
    485     C	 3.2395795842  7.6826317480 -0.3593714068	  C3      1    UNL1	  0.008689
    486     C	 1.2717681358  7.6826317480 -0.3593714068	  C3      1    UNL1	  0.012136
    487     C	 6.6773060485  3.3718591100 -2.3777887932	  C3      1    UNL1	 -0.004658
    488     C	 6.2394268072  5.2903334170 -2.3777887932	  C3      1    UNL1	  0.001922
    489     C	 5.0125164371  6.8288303589 -2.3777887932	  C3      1    UNL1	  0.006232
    490     C	 3.2395795842  7.6826317480 -2.3777887932	  C3      1    UNL1	  0.009569
    491     C	 1.2717681358  7.6826317480 -2.3777887932	  C3      1    UNL1	  0.012844
    492     C	 5.8015475658  3.3718591100 -4.1963200207	  C3      1    UNL1	 -0.000278
    493     C	 5.2386526420  5.2889031689 -4.1963200207	  C3      1    UNL1	  0.004825
    494     C	 3.7286830316  6.5972992843 -4.1963200207	  C3      1    UNL1	  0.008626
    495     C	 1.7510434170  6.8816409342 -4.1963200207	  C3      1    UNL1	  0.011997
    496     C	 3.2395795842  5.0760338142 -5.4547826770	  C3      1    UNL1	  0.008331
    497     C	-4.5777273175  6.0516516539  1.4591598207	  C3      1    UNL1	  0.001007
    498     C	-1.2717681358  7.6826317480 -0.3593714068	  C3      1    UNL1	  0.011153
    499     C	-3.2395795842  7.6826317480 -0.3593714068	  C3      1    UNL1	  0.006963
    500     C	-5.0125164371  6.8288303589 -0.3593714068	  C3      1    UNL1	  0.002963
    501     C	-6.2394268072  5.2903334170 -0.3593714068	  C3      1    UNL1	 -0.002146
    502     C	-1.2717681358  7.6826317480 -2.3777887932	  C3      1    UNL1	  0.011807
    503     C	-3.2395795842  7.6826317480 -2.3777887932	  C3      1    UNL1	  0.007761
    504     C	-5.0125164371  6.8288303589 -2.3777887932	  C3      1    UNL1	  0.004117
    505     C	-6.2394268072  5.2903334170 -2.3777887932	  C3      1    UNL1	 -0.000187
    506     C	-6.6773060485  3.3718591100 -2.3777887932	  C3      1    UNL1	 -0.006495
    507     C	-0.7826646884  6.5972992843 -4.1963200207	  C3      1    UNL1	  0.013103
    508     C	-2.7603043030  6.8816409342 -4.1963200207	  C3      1    UNL1	  0.008664
    509     C	-4.5777273175  6.0516516539 -4.1963200207	  C3      1    UNL1	  0.004827
    510     C	-5.6579147661  4.3708471754 -4.1963200207	  C3      1    UNL1	  0.000524
    511     C	-3.2395795842  5.0760338142 -5.4547826770	  C3      1    UNL1	  0.006713
    512     C	-3.2395795842 -5.0760338142  5.4547826770	  C3      1    UNL1	  0.008644
    513     C	-5.6579147661 -4.3708471754  4.1963200207	  C3      1    UNL1	  0.002638
    514     C	-4.5777273175 -6.0516516539  4.1963200207	  C3      1    UNL1	  0.007052
    515     C	-2.7603043030 -6.8816409342  4.1963200207	  C3      1    UNL1	  0.010590
    516     C	-0.7826646884 -6.5972992843  4.1963200207	  C3      1    UNL1	  0.014128
    517     C	-6.6773060485 -3.3718591100  2.3777887932	  C3      1    UNL1	 -0.004632
    518     C	-6.2394268072 -5.2903334170  2.3777887932	  C3      1    UNL1	  0.002037
    519     C	-5.0125164371 -6.8288303589  2.3777887932	  C3      1    UNL1	  0.006417
    520     C	-3.2395795842 -7.6826317480  2.3777887932	  C3      1    UNL1	  0.009816
    521     C	-1.2717681358 -7.6826317480  2.3777887932	  C3      1    UNL1	  0.013125
    522     C	-6.2394268072 -5.2903334170  0.3593714068	  C3      1    UNL1	 -0.000070
    523     C	-5.0125164371 -6.8288303589  0.3593714068	  C3      1    UNL1	  0.005154
    524     C	-3.2395795842 -7.6826317480  0.3593714068	  C3      1    UNL1	  0.008947
    525     C	-1.2717681358 -7.6826317480  0.3593714068	  C3      1    UNL1	  0.012471
    526     C	-4.5777273175 -6.0516516539 -1.4591598207	  C3      1    UNL1	  0.002889
    527     C	 3.2395795842 -5.0760338142  5.4547826770	  C3      1    UNL1	  0.006785
    528     C	 5.8015475658 -3.3718591100  4.1963200207	  C3      1    UNL1	 -0.001975
    529     C	 1.7510434170 -6.8816409342  4.1963200207	  C3      1    UNL1	  0.010741
    530     C	 3.7286830316 -6.5972992843  4.1963200207	  C3      1    UNL1	  0.006602
    531     C	 5.2386526420 -5.2889031689  4.1963200207	  C3      1    UNL1	  0.002690
    532     C	 6.6773060485 -3.3718591100  2.3777887932	  C3      1    UNL1	 -0.006399
    533     C	 1.2717681358 -7.6826317480  2.3777887932	  C3      1    UNL1	  0.011829
    534     C	 3.2395795842 -7.6826317480  2.3777887932	  C3      1    UNL1	  0.007601
    535     C	 5.0125164371 -6.8288303589  2.3777887932	  C3      1    UNL1	  0.003908
    536     C	 6.2394268072 -5.2903334170  2.3777887932	  C3      1    UNL1	 -0.000312
    537     C	 1.2717681358 -7.6826317480  0.3593714068	  C3      1    UNL1	  0.011282
    538     C	 3.2395795842 -7.6826317480  0.3593714068	  C3      1    UNL1	  0.006894
    539     C	 5.0125164371 -6.8288303589  0.3593714068	  C3      1    UNL1	  0.002840
    540     C	 6.2394268072 -5.2903334170  0.3593714068	  C3      1    UNL1	 -0.002183
    541     C	 3.7286830316 -6.5972992843 -1.4591598207	  C3      1    UNL1	  0.003836
    542     C	 2.2809494800  3.6398532084  4.4747443387	  C3      1    UNL1	 -0.002637
    543     C	 0.3419762800  3.6398532084  4.4747443387	  C3      1    UNL1	 -0.000240
    544     C	 2.8252674301  5.2754227528  3.4903018452	  C3      1    UNL1	  0.001155
    545     C	 0.7928565635  5.5676393199  3.4903018452	  C3      1    UNL1	  0.004309
    546     C	 4.5966616278  5.6092360030  1.9820484418	  C3      1    UNL1	  0.000864
    547     C	 2.8286289359  6.6300101536  1.9820484418	  C3      1    UNL1	  0.006057
    548     C	 0.7982644500  6.8434100602  1.9820484418	  C3      1    UNL1	  0.008718
    549     C	 4.9555404957  1.9606531600 -5.1953833352	  C3      1    UNL1	 -0.001797
    550     C	 0.7928565635  5.5676393199 -5.1953833352	  C3      1    UNL1	  0.012774
    551     C	 0.7928565635 -1.6463329999 -5.1953833352	  C3      1    UNL1	 -0.002240
    552     C	 3.2504360799  1.9606531600 -6.1798258287	  C3      1    UNL1	  0.002291
    553     C	 2.2809494800  3.6398532084 -6.1798258287	  C3      1    UNL1	  0.007548
    554     C	 0.3419762800  3.6398532084 -6.1798258287	  C3      1    UNL1	  0.009585
    555     C	 0.3419762800  0.2814531116 -6.1798258287	  C3      1    UNL1	  0.001995
    556     C	 2.2809494800  0.2814531116 -6.1798258287	  C3      1    UNL1	 -0.000177
    557     C	 1.3114628800  1.9606531600 -6.5217191187	  C3      1    UNL1	  0.005071
    558     C	-0.3419762800  3.6398532084  4.4747443387	  C3      1    UNL1	 -0.000307
    559     C	-2.2809494800  3.6398532084  4.4747443387	  C3      1    UNL1	 -0.003044
    560     C	-1.8300691965  5.5676393199  3.4903018452	  C3      1    UNL1	  0.002672
    561     C	-3.6978262220  4.7146632670  3.4903018452	  C3      1    UNL1	 -0.002685
    562     C	-1.8246613100  6.8434100602  1.9820484418	  C3      1    UNL1	  0.006782
    563     C	-3.7662891251  6.2125369403  1.9820484418	  C3      1    UNL1	  0.002369
    564     C	-5.2834551811  4.8464744876  1.9820484418	  C3      1    UNL1	 -0.004319
    565     C	-0.7963239404  7.5198876651  0.1319017485	  C3      1    UNL1	  0.011604
    566     C	-4.8079297476  2.9873084640 -5.1953833352	  C3      1    UNL1	  0.000023
    567     C	-4.8079297476  0.9339978560 -5.1953833352	  C3      1    UNL1	 -0.005578
    568     C	-0.3419762800  3.6398532084 -6.1798258287	  C3      1    UNL1	  0.009410
    569     C	-2.2809494800  3.6398532084 -6.1798258287	  C3      1    UNL1	  0.006557
    570     C	-3.2504360799  1.9606531600 -6.1798258287	  C3      1    UNL1	  0.001438
    571     C	-2.2809494800  0.2814531116 -6.1798258287	  C3      1    UNL1	 -0.000540
    572     C	-0.3419762800  0.2814531116 -6.1798258287	  C3      1    UNL1	  0.001939
    573     C	-1.3114628800  1.9606531600 -6.5217191187	  C3      1    UNL1	  0.004697
    574     C	-1.3114628800 -1.9606531600  6.5217191187	  C3      1    UNL1	  0.005566
    575     C	-0.3419762800 -0.2814531116  6.1798258287	  C3      1    UNL1	  0.002545
    576     C	-2.2809494800 -0.2814531116  6.1798258287	  C3      1    UNL1	  0.000092
    577     C	-3.2504360799 -1.9606531600  6.1798258287	  C3      1    UNL1	  0.002580
    578     C	-2.2809494800 -3.6398532084  6.1798258287	  C3      1    UNL1	  0.007959
    579     C	-0.3419762800 -3.6398532084  6.1798258287	  C3      1    UNL1	  0.010139
    580     C	-4.8079297476 -0.9339978560  5.1953833352	  C3      1    UNL1	 -0.004645
    581     C	-4.8079297476 -2.9873084640  5.1953833352	  C3      1    UNL1	  0.001762
    582     C	-0.7963239404 -7.5198876651 -0.1319017485	  C3      1    UNL1	  0.012595
    583     C	-5.2834551811 -4.8464744876 -1.9820484418	  C3      1    UNL1	 -0.002827
    584     C	-3.7662891251 -6.2125369403 -1.9820484418	  C3      1    UNL1	  0.004034
    585     C	-1.8246613100 -6.8434100602 -1.9820484418	  C3      1    UNL1	  0.008037
    586     C	-3.6978262220 -4.7146632670 -3.4903018452	  C3      1    UNL1	 -0.001761
    587     C	-1.8300691965 -5.5676393199 -3.4903018452	  C3      1    UNL1	  0.003526
    588     C	-2.2809494800 -3.6398532084 -4.4747443387	  C3      1    UNL1	 -0.002627
    589     C	-0.3419762800 -3.6398532084 -4.4747443387	  C3      1    UNL1	  0.000048
    590     C	 1.3114628800 -1.9606531600  6.5217191187	  C3      1    UNL1	  0.005325
    591     C	 3.2504360799 -1.9606531600  6.1798258287	  C3      1    UNL1	  0.001961
    592     C	 2.2809494800 -0.2814531116  6.1798258287	  C3      1    UNL1	  0.000106
    593     C	 0.3419762800 -0.2814531116  6.1798258287	  C3      1    UNL1	  0.002565
    594     C	 0.3419762800 -3.6398532084  6.1798258287	  C3      1    UNL1	  0.009964
    595     C	 2.2809494800 -3.6398532084  6.1798258287	  C3      1    UNL1	  0.006954
    596     C	 4.9555404957 -1.9606531600  5.1953833352	  C3      1    UNL1	 -0.002604
    597     C	 0.7928565635  1.6463329999  5.1953833352	  C3      1    UNL1	 -0.001977
    598     C	 0.7928565635 -5.5676393199  5.1953833352	  C3      1    UNL1	  0.012437
    599     C	 0.7982644500 -6.8434100602 -1.9820484418	  C3      1    UNL1	  0.008724
    600     C	 2.8286289359 -6.6300101536 -1.9820484418	  C3      1    UNL1	  0.005092
    601     C	 4.5966616278 -5.6092360030 -1.9820484418	  C3      1    UNL1	 -0.000425
    602     C	 0.7928565635 -5.5676393199 -3.4903018452	  C3      1    UNL1	  0.004592
    603     C	 2.8252674301 -5.2754227528 -3.4903018452	  C3      1    UNL1	  0.000880
    604     C	 0.3419762800 -3.6398532084 -4.4747443387	  C3      1    UNL1	  0.000075
    605     C	 2.2809494800 -3.6398532084 -4.4747443387	  C3      1    UNL1	 -0.002566
